data_Molecule from HDF5

_cell_length_a		16.224817
_cell_length_b		16.159705
_cell_length_c		16.370944
_cell_angle_alpha	89.940070
_cell_angle_beta	90.170332
_cell_angle_gamma	89.337276
_symmetry_space_group_name_H-M	'P 1'
_symmetry_Int_Tables_number		1

loop_
	_symmetry_equiv_pos_as_xyz
	x,y,z

loop_
	_atom_site_label
	_atom_site_type_symbol
	_atom_site_fract_x
	_atom_site_fract_y
	_atom_site_fract_z
	H0	H	0.394259	0.830992	0.718101
	H1	H	0.596790	0.155560	0.718946
	H2	H	0.597077	0.828210	0.285795
	H3	H	0.390943	0.156073	0.282829
	H4	H	0.713109	0.389024	0.839629
	H5	H	0.709556	0.590350	0.163363
	H6	H	0.274560	0.596776	0.839784
	H7	H	0.280077	0.392908	0.163708
	H8	H	0.832112	0.712788	0.400196
	H9	H	0.158924	0.704746	0.601270
	H10	H	0.829018	0.282647	0.598627
	H11	H	0.157321	0.276104	0.402508
	H12	H	0.831998	0.392457	0.718013
	H13	H	0.155125	0.597614	0.721772
	H14	H	0.832107	0.599551	0.281770
	H15	H	0.156659	0.389817	0.284545
	H16	H	0.391387	0.711795	0.838924
	H17	H	0.592358	0.707502	0.163708
	H18	H	0.595653	0.275458	0.838668
	H19	H	0.395232	0.276323	0.163120
	H20	H	0.713587	0.829999	0.400531
	H21	H	0.704676	0.159170	0.598509
	H22	H	0.280889	0.829682	0.601319
	H23	H	0.277198	0.157589	0.399532
	H24	H	0.895331	0.330054	0.217742
	H25	H	0.094595	0.656763	0.218430
	H26	H	0.096211	0.330075	0.784535
	H27	H	0.889357	0.656847	0.783583
	H28	H	0.211000	0.892243	0.339089
	H29	H	0.210555	0.093563	0.663137
	H30	H	0.776848	0.095569	0.338807
	H31	H	0.779110	0.893961	0.663673
	H32	H	0.330874	0.210400	0.899692
	H33	H	0.658984	0.204101	0.098068
	H34	H	0.329635	0.783292	0.097594
	H35	H	0.656726	0.774834	0.901412
	H36	H	0.332168	0.892280	0.217151
	H37	H	0.656807	0.092700	0.218240
	H38	H	0.332906	0.097239	0.781318
	H39	H	0.657209	0.888423	0.784663
	H40	H	0.892567	0.210835	0.338583
	H41	H	0.092180	0.207791	0.663963
	H42	H	0.096507	0.774792	0.339992
	H43	H	0.897070	0.778617	0.664379
	H44	H	0.211273	0.329501	0.902686
	H45	H	0.206276	0.658601	0.099918
	H46	H	0.784678	0.327087	0.098608
	H47	H	0.775418	0.656185	0.900473
	H48	H	0.397925	0.110764	0.589487
	H49	H	0.595484	0.873280	0.594564
	H50	H	0.581277	0.107701	0.411130
	H51	H	0.411092	0.876994	0.402462
	H52	H	0.586728	0.401099	0.115318
	H53	H	0.583526	0.587664	0.884754
	H54	H	0.404177	0.590066	0.117306
	H55	H	0.402084	0.399753	0.885169
	H56	H	0.106286	0.579258	0.422080
	H57	H	0.877271	0.586606	0.594256
	H58	H	0.109465	0.403818	0.590811
	H59	H	0.876877	0.402281	0.407269
	H60	H	0.110796	0.402360	0.596088
	H61	H	0.877642	0.587267	0.591043
	H62	H	0.110713	0.571698	0.398651
	H63	H	0.877282	0.405134	0.408112
	H64	H	0.397373	0.589384	0.118209
	H65	H	0.588636	0.582373	0.885225
	H66	H	0.588244	0.394692	0.116713
	H67	H	0.400285	0.405436	0.885992
	H68	H	0.589198	0.111306	0.407001
	H69	H	0.582330	0.875921	0.597543
	H70	H	0.405439	0.110746	0.596303
	H71	H	0.406285	0.878772	0.416256
	H72	H	0.906295	0.607953	0.089328
	H73	H	0.083495	0.379995	0.086724
	H74	H	0.092697	0.612177	0.913073
	H75	H	0.906450	0.376384	0.904694
	H76	H	0.086645	0.899262	0.617248
	H77	H	0.086989	0.079413	0.387243
	H78	H	0.899288	0.085503	0.616577
	H79	H	0.896765	0.889807	0.380021
	H80	H	0.612210	0.084053	0.906455
	H81	H	0.379320	0.076870	0.094074
	H82	H	0.615002	0.894895	0.099290
	H83	H	0.378226	0.904850	0.909164
	H84	H	0.610521	0.895883	0.087336
	H85	H	0.374267	0.090843	0.098212
	H86	H	0.610543	0.084175	0.912285
	H87	H	0.377558	0.905594	0.904971
	H88	H	0.901828	0.089130	0.616626
	H89	H	0.080158	0.087802	0.386542
	H90	H	0.090658	0.900338	0.617235
	H91	H	0.895265	0.918486	0.388990
	H92	H	0.080997	0.612222	0.899792
	H93	H	0.095075	0.374662	0.092504
	H94	H	0.894494	0.611052	0.088824
	H95	H	0.906812	0.376618	0.909840
	H96	H	0.407176	0.108167	0.587359
	H97	H	0.586391	0.878822	0.584879
	H98	H	0.581515	0.111146	0.402009
	H99	H	0.397164	0.873418	0.406098
	H100	H	0.592410	0.399971	0.117749
	H101	H	0.581623	0.581444	0.887577
	H102	H	0.400664	0.583919	0.115632
	H103	H	0.406091	0.403779	0.887396
	H104	H	0.115756	0.595952	0.405521
	H105	H	0.878175	0.584543	0.592387
	H106	H	0.111273	0.398164	0.592073
	H107	H	0.876896	0.404299	0.405392
	H108	H	0.901612	0.612016	0.099032
	H109	H	0.083182	0.375255	0.099855
	H110	H	0.075927	0.606191	0.915341
	H111	H	0.902182	0.375468	0.907947
	H112	H	0.088031	0.903361	0.616003
	H113	H	0.090374	0.088430	0.383268
	H114	H	0.897665	0.090631	0.618008
	H115	H	0.920165	0.902849	0.391939
	H116	H	0.609553	0.078644	0.907838
	H117	H	0.379687	0.087770	0.084084
	H118	H	0.610054	0.906270	0.095250
	H119	H	0.376518	0.901219	0.906057
	C120	C	0.374144	0.002013	0.621222
	C121	C	0.616458	0.984554	0.621804
	C122	C	0.615758	0.001838	0.378345
	C123	C	0.373182	0.984571	0.378359
	C124	C	0.618344	0.368901	0.009585
	C125	C	0.614639	0.613365	0.992615
	C126	C	0.370928	0.617137	0.009845
	C127	C	0.373749	0.372689	0.993121
	C128	C	0.003241	0.614563	0.379017
	C129	C	0.985763	0.614979	0.622453
	C130	C	0.002202	0.372869	0.621868
	C131	C	0.984940	0.372084	0.378347
	C132	C	0.873179	0.501439	0.121535
	C133	C	0.115825	0.484897	0.122722
	C134	C	0.114992	0.502360	0.879622
	C135	C	0.872880	0.484271	0.878311
	C136	C	0.118049	0.870636	0.510178
	C137	C	0.115179	0.114713	0.492855
	C138	C	0.870572	0.117444	0.509534
	C139	C	0.874222	0.873384	0.493775
	C140	C	0.503309	0.114186	0.878569
	C141	C	0.485736	0.113950	0.121909
	C142	C	0.503235	0.871343	0.122166
	C143	C	0.485510	0.871987	0.878337
	C144	C	0.375163	0.879572	0.678906
	C145	C	0.615649	0.107113	0.679548
	C146	C	0.616594	0.877784	0.323314
	C147	C	0.372409	0.107381	0.321539
	C148	C	0.674462	0.369951	0.887700
	C149	C	0.671163	0.611294	0.114838
	C150	C	0.313295	0.616306	0.888136
	C151	C	0.318113	0.373202	0.115190
	C152	C	0.880573	0.673453	0.380208
	C153	C	0.109217	0.668720	0.621411
	C154	C	0.878876	0.318929	0.619439
	C155	C	0.108141	0.314270	0.381345
	C156	C	0.880323	0.373646	0.678896
	C157	C	0.107385	0.615120	0.681490
	C158	C	0.880735	0.617148	0.321588
	C159	C	0.107849	0.370778	0.322755
	C160	C	0.371469	0.673392	0.887504
	C161	C	0.612650	0.669410	0.115003
	C162	C	0.616280	0.313159	0.887387
	C163	C	0.375602	0.315367	0.114743
	C164	C	0.674486	0.878724	0.380367
	C165	C	0.669223	0.109058	0.619351
	C166	C	0.318653	0.878870	0.620812
	C167	C	0.315605	0.108161	0.379690
	C168	C	0.875712	0.378581	0.178618
	C169	C	0.113886	0.608262	0.179257
	C170	C	0.115796	0.379029	0.822837
	C171	C	0.870933	0.607697	0.822151
	C172	C	0.173563	0.871807	0.387873
	C173	C	0.171853	0.113349	0.614718
	C174	C	0.814771	0.115547	0.387458
	C175	C	0.818082	0.874715	0.615579
	C176	C	0.380302	0.172161	0.879541
	C177	C	0.609584	0.167794	0.119668
	C178	C	0.379373	0.818549	0.119171
	C179	C	0.608054	0.813782	0.881018
	C180	C	0.380576	0.872996	0.178385
	C181	C	0.608456	0.112238	0.179030
	C182	C	0.381205	0.116081	0.820441
	C183	C	0.608234	0.870102	0.822731
	C184	C	0.872472	0.172926	0.387218
	C185	C	0.112737	0.170072	0.615234
	C186	C	0.116404	0.813550	0.388306
	C187	C	0.876239	0.816692	0.615770
	C188	C	0.172725	0.378766	0.881639
	C189	C	0.169615	0.609065	0.120564
	C190	C	0.820590	0.377063	0.119374
	C191	C	0.814169	0.607344	0.880208
	C192	C	0.396840	0.087774	0.597862
	C193	C	0.594655	0.898364	0.599021
	C194	C	0.591120	0.087660	0.400311
	C195	C	0.397783	0.898515	0.401508
	C196	C	0.595766	0.391876	0.094518
	C197	C	0.591337	0.590570	0.907890
	C198	C	0.393979	0.594342	0.094841
	C199	C	0.396194	0.396153	0.908190
	C200	C	0.088531	0.589588	0.401974
	C201	C	0.899945	0.592821	0.599225
	C202	C	0.088208	0.395053	0.599519
	C203	C	0.899137	0.396771	0.400335
	C204	C	0.894626	0.587996	0.099005
	C205	C	0.093671	0.398865	0.099773
	C206	C	0.090420	0.587872	0.902507
	C207	C	0.897711	0.398473	0.900943
	C208	C	0.095166	0.894023	0.594805
	C209	C	0.092461	0.091845	0.407650
	C210	C	0.893051	0.095036	0.595124
	C211	C	0.897354	0.896690	0.408928
	C212	C	0.588781	0.089401	0.901978
	C213	C	0.400060	0.091657	0.098813
	C214	C	0.589417	0.892778	0.100428
	C215	C	0.399516	0.896618	0.900193
	Zn216	Zn	0.495437	-0.006828	0.749661
	Zn217	Zn	0.494426	-0.008159	0.249931
	Zn218	Zn	0.745339	0.491735	0.000832
	Zn219	Zn	0.243747	0.493687	0.001879
	Zn220	Zn	-0.004512	0.742202	0.502034
	Zn221	Zn	-0.006906	0.244563	0.501176
	Zn222	Zn	-0.005863	0.494022	0.750032
	Zn223	Zn	-0.005728	0.493788	0.249790
	Zn224	Zn	0.493331	0.744713	0.000344
	Zn225	Zn	0.494886	0.242354	0.000653
	Zn226	Zn	0.743538	-0.005421	0.501096
	Zn227	Zn	0.245855	-0.006652	0.500585
	N228	N	0.409211	0.957088	0.679211
	N229	N	0.583399	0.028787	0.681242
	N230	N	0.580997	0.955277	0.321639
	N231	N	0.407574	0.029477	0.320731
	N232	N	0.676033	0.403845	0.964721
	N233	N	0.672454	0.577243	0.037918
	N234	N	0.312710	0.582055	0.965218
	N235	N	0.316601	0.408170	0.038511
	N236	N	0.957622	0.671855	0.415577
	N237	N	0.032586	0.668551	0.585309
	N238	N	0.955922	0.318233	0.584666
	N239	N	0.030694	0.314865	0.415173
	N240	N	0.958114	0.406622	0.680334
	N241	N	0.029518	0.582374	0.682320
	N242	N	0.957946	0.581191	0.320704
	N243	N	0.030230	0.405986	0.320870
	N244	N	0.406168	0.674438	0.964126
	N245	N	0.578246	0.670851	0.038033
	N246	N	0.582098	0.312286	0.964075
	N247	N	0.409374	0.314818	0.037774
	N248	N	0.674300	0.956870	0.413868
	N249	N	0.669977	0.031791	0.584080
	N250	N	0.318044	0.956109	0.585500
	N251	N	0.316135	0.030703	0.414617
	N252	N	0.907896	0.456973	0.179947
	N253	N	0.081242	0.530027	0.180795
	N254	N	0.080682	0.456866	0.821518
	N255	N	0.906783	0.530314	0.820861
	N256	N	0.174928	0.906503	0.464558
	N257	N	0.173408	0.079663	0.537641
	N258	N	0.813475	0.081871	0.464561
	N259	N	0.816620	0.908979	0.538559
	N260	N	0.457403	0.171294	0.914827
	N261	N	0.532361	0.169033	0.085018
	N262	N	0.456669	0.817432	0.084614
	N263	N	0.530679	0.814855	0.914753
	N264	N	0.458606	0.905191	0.180222
	N265	N	0.530327	0.079770	0.180659
	N266	N	0.458667	0.080713	0.819845
	N267	N	0.530916	0.905878	0.821258
	N268	N	0.906564	0.174077	0.464175
	N269	N	0.078177	0.171120	0.538371
	N270	N	0.082711	0.812530	0.465204
	N271	N	0.910578	0.815832	0.539058
	N272	N	0.172463	0.456211	0.916203
	N273	N	0.170837	0.531405	0.086225
	N274	N	0.819033	0.454507	0.084379
	N275	N	0.815436	0.529624	0.914597
	O276	O	0.435735	-0.495295	1.470977
	H277	H	0.447778	-0.499141	1.478137
	H278	H	0.435720	-0.499609	1.457885
	O279	O	0.377217	0.373225	0.438279
	H280	H	0.387377	0.381710	0.437239
	H281	H	0.374995	0.378771	0.429205
	O282	O	0.575498	0.561216	0.531417
	H283	H	0.582890	0.562811	0.540316
	H284	H	0.566967	0.571883	0.536404
	O285	O	0.538060	0.468818	0.657354
	H286	H	0.530390	0.474288	0.651414
	H287	H	0.533341	0.468337	0.665594
	O288	O	0.512349	0.503480	0.601915
	H289	H	0.497754	0.508293	0.613580
	H290	H	0.514143	0.494286	0.617634
	O291	O	0.046134	-0.120142	1.056197
	H292	H	0.056020	-0.122238	1.045675
	H293	H	0.053123	-0.110743	1.066369
	O294	O	0.982305	0.977518	-0.093599
	H295	H	0.988386	0.969505	-0.081699
	H296	H	0.977380	0.977556	-0.100212
	O297	O	0.971198	0.958520	0.036443
	H298	H	0.975714	0.967932	0.044170
	H299	H	0.969687	0.958989	0.043469
	O300	O	0.556669	0.569636	0.556057
	H301	H	0.539796	0.569920	0.553193
	H302	H	0.546997	0.572238	0.546550
	O303	O	0.365068	0.593917	0.520694
	H304	H	0.364496	0.596316	0.504860
	H305	H	0.357057	0.603304	0.522718
	O306	O	0.502688	0.382274	0.458999
	H307	H	0.510738	0.386154	0.463912
	H308	H	0.510123	0.376698	0.458072
	O309	O	0.619790	0.583651	0.589387
	H310	H	0.603624	0.579027	0.602264
	H311	H	0.627563	0.583080	0.599731
	O312	O	0.951357	0.979391	1.003373
	H313	H	0.955211	0.973601	1.009142
	H314	H	0.947758	0.973279	0.980967
	O315	O	0.900286	1.046233	0.007956
	H316	H	0.899951	1.033513	0.013519
	H317	H	0.904203	1.040935	0.017398
	O318	O	0.547264	0.526219	0.497396
	H319	H	0.550440	0.516749	0.503102
	H320	H	0.548445	0.528396	0.502377
	O321	O	0.542255	0.508714	0.489591
	H322	H	0.550153	0.522698	0.488629
	H323	H	0.544398	0.497442	0.495372
	O324	O	-0.015323	1.004924	1.014587
	H325	H	-0.015980	0.999510	1.010348
	H326	H	-0.012845	1.007541	1.017378
	O327	O	-0.021976	0.927391	0.971986
	H328	H	-0.016570	0.925024	0.969141
	H329	H	-0.028631	0.922009	0.968969
	O330	O	-0.625274	0.546161	0.389083
	H331	H	-0.633965	0.536987	0.383744
	H332	H	-0.621789	0.546895	0.387187
	O333	O	0.432912	0.439489	0.498348
	H334	H	0.417741	0.442325	0.490217
	H335	H	0.439028	0.443185	0.485384
	O336	O	0.043373	0.025729	-0.082612
	H337	H	0.041479	0.017123	-0.089302
	H338	H	0.039361	0.021508	-0.065645
	O339	O	0.010963	0.057147	0.018578
	H340	H	0.003128	0.063212	0.011055
	H341	H	0.015198	0.044650	0.022704
	O342	O	0.506165	0.380570	0.517420
	H343	H	0.492890	0.373888	0.505695
	H344	H	0.498815	0.382970	0.515481
	O345	O	0.016705	0.960933	1.008330
	H346	H	0.015342	0.954054	1.006906
	H347	H	0.010790	0.970564	1.011445
	O348	O	0.503653	0.546756	0.608065
	H349	H	0.498071	0.545762	0.604944
	H350	H	0.497640	0.541903	0.598353
	O351	O	0.570246	0.565182	0.483130
	H352	H	0.569333	0.561500	0.477691
	H353	H	0.584993	0.567338	0.497338
	O354	O	0.894409	1.185481	-0.764471
	H355	H	0.907042	1.195048	-0.766454
	H356	H	0.899144	1.191090	-0.775493
	O357	O	1.022318	1.049694	0.994537
	H358	H	1.019269	1.053152	0.999330
	H359	H	1.024188	1.051018	0.991772
	O360	O	1.009147	0.019724	0.937537
	H361	H	1.007266	0.022367	0.927675
	H362	H	0.995626	0.026977	0.951347
	O363	O	0.448534	0.472008	0.538979
	H364	H	0.459488	0.463510	0.535271
	H365	H	0.436326	0.467852	0.542046
	O366	O	0.468240	0.558774	0.577810
	H367	H	0.463727	0.556274	0.582196
	H368	H	0.460487	0.551103	0.578920
	O369	O	1.143074	-0.111320	-0.019208
	H370	H	1.143264	-0.119424	-0.019844
	H371	H	1.134599	-0.102507	-0.031419
	O372	O	0.558791	0.427058	0.385641
	H373	H	0.565367	0.416756	0.386868
	H374	H	0.560004	0.429842	0.395545
	O375	O	1.092943	-0.061657	1.055573
	H376	H	1.092799	-0.045797	1.058120
	H377	H	1.094212	-0.063597	1.057675
	O378	O	-0.597650	1.505582	-0.647166
	H379	H	-0.577546	1.498094	-0.654005
	H380	H	-0.593708	1.522258	-0.637955
	O381	O	0.514153	0.470332	0.454700
	H382	H	0.527334	0.451458	0.448633
	H383	H	0.515571	0.472916	0.445577
	O384	O	0.883865	1.050273	-0.036361
	H385	H	0.880298	1.059009	-0.035633
	H386	H	0.890594	1.056836	-0.050405
	O387	O	1.019472	-0.023054	1.053814
	H388	H	1.011748	-0.017180	1.058419
	H389	H	1.018696	-0.026910	1.058876
	O390	O	0.869808	1.031048	0.012969
	H391	H	0.867241	1.025858	0.007832
	H392	H	0.876842	1.030063	0.012782
	O393	O	0.837692	0.960422	0.144521
	H394	H	0.841204	0.947404	0.136669
	H395	H	0.825556	0.962589	0.152826
