data_Molecule from HDF5

_cell_length_a		16.297920
_cell_length_b		16.022650
_cell_length_c		16.357743
_cell_angle_alpha	90.450654
_cell_angle_beta	89.599469
_cell_angle_gamma	90.315173
_symmetry_space_group_name_H-M	'P 1'
_symmetry_Int_Tables_number		1

loop_
	_symmetry_equiv_pos_as_xyz
	x,y,z

loop_
	_atom_site_label
	_atom_site_type_symbol
	_atom_site_fract_x
	_atom_site_fract_y
	_atom_site_fract_z
	H0	H	0.400350	0.845108	0.711939
	H1	H	0.603776	0.175597	0.710281
	H2	H	0.603944	0.846439	0.278373
	H3	H	0.405670	0.176509	0.286345
	H4	H	0.721805	0.407102	0.835747
	H5	H	0.720256	0.613790	0.159602
	H6	H	0.287344	0.611815	0.834479
	H7	H	0.284533	0.409998	0.158617
	H8	H	0.839184	0.717029	0.403717
	H9	H	0.167931	0.724931	0.591995
	H10	H	0.840646	0.294773	0.593673
	H11	H	0.169946	0.297740	0.398687
	H12	H	0.842260	0.406170	0.715479
	H13	H	0.166782	0.615020	0.714275
	H14	H	0.841099	0.608671	0.283046
	H15	H	0.165615	0.406879	0.275853
	H16	H	0.410291	0.722070	0.831909
	H17	H	0.600165	0.727272	0.159818
	H18	H	0.599681	0.298032	0.832785
	H19	H	0.404467	0.297739	0.160257
	H20	H	0.713325	0.842367	0.396876
	H21	H	0.718041	0.174427	0.594409
	H22	H	0.289147	0.844151	0.595508
	H23	H	0.290869	0.173611	0.398883
	H24	H	0.902717	0.342903	0.209814
	H25	H	0.102952	0.674781	0.212087
	H26	H	0.107564	0.345844	0.778943
	H27	H	0.905198	0.674033	0.784020
	H28	H	0.224493	0.903801	0.335309
	H29	H	0.221594	0.112750	0.658299
	H30	H	0.789520	0.109243	0.332748
	H31	H	0.784503	0.908127	0.657310
	H32	H	0.339717	0.220582	0.902492
	H33	H	0.668111	0.226462	0.092247
	H34	H	0.340444	0.796289	0.094360
	H35	H	0.667929	0.798390	0.896456
	H36	H	0.341484	0.909358	0.213967
	H37	H	0.666043	0.117473	0.214411
	H38	H	0.342442	0.113137	0.779835
	H39	H	0.664676	0.907548	0.776056
	H40	H	0.911674	0.219754	0.331503
	H41	H	0.102669	0.225623	0.659262
	H42	H	0.101356	0.794147	0.332261
	H43	H	0.905278	0.797249	0.659950
	H44	H	0.217083	0.344523	0.895937
	H45	H	0.216975	0.675187	0.097640
	H46	H	0.786026	0.343997	0.097426
	H47	H	0.792670	0.674746	0.899946
	H48	H	0.417586	0.127081	0.591735
	H49	H	0.580905	0.893841	0.590946
	H50	H	0.608859	0.135157	0.398104
	H51	H	0.417920	0.891891	0.402453
	H52	H	0.594377	0.414962	0.113823
	H53	H	0.608950	0.598482	0.879017
	H54	H	0.409601	0.597568	0.109678
	H55	H	0.410751	0.417325	0.880917
	H56	H	0.117788	0.595137	0.405177
	H57	H	0.886864	0.595476	0.598671
	H58	H	0.121480	0.418518	0.591416
	H59	H	0.887858	0.418894	0.400407
	H60	H	0.119769	0.418451	0.586413
	H61	H	0.885663	0.607249	0.594406
	H62	H	0.122908	0.600235	0.394366
	H63	H	0.885955	0.410399	0.401239
	H64	H	0.414523	0.606463	0.112196
	H65	H	0.592904	0.597747	0.883837
	H66	H	0.600047	0.421343	0.113925
	H67	H	0.408945	0.414555	0.880374
	H68	H	0.586339	0.127473	0.398983
	H69	H	0.597828	0.893198	0.575037
	H70	H	0.413638	0.126272	0.585236
	H71	H	0.413634	0.892011	0.407236
	H72	H	0.912437	0.628379	0.095461
	H73	H	0.095381	0.392410	0.080878
	H74	H	0.099704	0.630132	0.903797
	H75	H	0.922965	0.392637	0.900620
	H76	H	0.093618	0.915664	0.611358
	H77	H	0.100776	0.100636	0.380096
	H78	H	0.909045	0.103435	0.612419
	H79	H	0.908857	0.907799	0.377378
	H80	H	0.619585	0.100984	0.903804
	H81	H	0.387261	0.100759	0.095666
	H82	H	0.623440	0.911355	0.087036
	H83	H	0.385918	0.920192	0.897968
	H84	H	0.615174	0.927316	0.080209
	H85	H	0.386468	0.106052	0.093555
	H86	H	0.621315	0.101809	0.897963
	H87	H	0.386368	0.912170	0.905623
	H88	H	0.907525	0.099046	0.610888
	H89	H	0.100238	0.098660	0.380403
	H90	H	0.100822	0.917549	0.613963
	H91	H	0.904015	0.916275	0.378394
	H92	H	0.092913	0.628398	0.903765
	H93	H	0.099591	0.388248	0.090801
	H94	H	0.915479	0.626628	0.088926
	H95	H	0.911876	0.394554	0.917024
	H96	H	0.410506	0.129168	0.590735
	H97	H	0.602503	0.885054	0.596475
	H98	H	0.600446	0.125916	0.417793
	H99	H	0.411508	0.890854	0.401894
	H100	H	0.593137	0.423302	0.111504
	H101	H	0.599484	0.611157	0.878586
	H102	H	0.404340	0.605180	0.113444
	H103	H	0.407846	0.417998	0.880872
	H104	H	0.122962	0.607957	0.405132
	H105	H	0.890543	0.597734	0.586435
	H106	H	0.119992	0.423036	0.589069
	H107	H	0.889569	0.415697	0.407778
	H108	H	0.908181	0.627783	0.089885
	H109	H	0.088202	0.392017	0.089583
	H110	H	0.096649	0.628073	0.909964
	H111	H	0.904668	0.386322	0.900316
	H112	H	0.096262	0.922809	0.609898
	H113	H	0.098861	0.100846	0.381097
	H114	H	0.912064	0.099992	0.609965
	H115	H	0.913547	0.915061	0.380916
	H116	H	0.621280	0.106266	0.901894
	H117	H	0.388659	0.101150	0.090161
	H118	H	0.621484	0.927470	0.097260
	H119	H	0.389520	0.923427	0.907755
	C120	C	0.383101	0.018412	0.618175
	C121	C	0.623751	1.000345	0.616483
	C122	C	0.626166	0.019621	0.374387
	C123	C	0.384705	1.000792	0.376041
	C124	C	0.625068	0.389236	0.005531
	C125	C	0.627663	0.633092	0.988359
	C126	C	0.381981	0.632069	0.004465
	C127	C	0.380140	0.388100	0.988313
	C128	C	0.012718	0.629181	0.375298
	C129	C	0.995389	0.631562	0.620602
	C130	C	0.012894	0.388895	0.618449
	C131	C	0.995932	0.386526	0.373498
	C132	C	0.881762	0.518099	0.119582
	C133	C	0.123803	0.500605	0.117024
	C134	C	0.125876	0.519248	0.875512
	C135	C	0.884458	0.500196	0.877201
	C136	C	0.126238	0.887434	0.504869
	C137	C	0.127797	0.130588	0.487731
	C138	C	0.882495	0.129994	0.503712
	C139	C	0.880100	0.885457	0.486946
	C140	C	0.513038	0.131847	0.874361
	C141	C	0.495229	0.134125	0.120482
	C142	C	0.512473	0.891028	0.117701
	C143	C	0.494772	0.888869	0.873740
	C144	C	0.382013	0.894498	0.673984
	C145	C	0.623310	0.125565	0.672234
	C146	C	0.623782	0.895288	0.317027
	C147	C	0.386171	0.126321	0.322977
	C148	C	0.682151	0.388867	0.883627
	C149	C	0.682040	0.633092	0.110855
	C150	C	0.326735	0.630436	0.882429
	C151	C	0.323761	0.390317	0.110440
	C152	C	0.888595	0.681638	0.381172
	C153	C	0.118660	0.687855	0.615001
	C154	C	0.889923	0.331963	0.615406
	C155	C	0.119950	0.333225	0.376446
	C156	C	0.890742	0.387414	0.676006
	C157	C	0.117986	0.633244	0.675810
	C158	C	0.889542	0.627417	0.321265
	C159	C	0.117838	0.387708	0.315511
	C160	C	0.387775	0.685406	0.881115
	C161	C	0.622658	0.689607	0.110831
	C162	C	0.621586	0.334201	0.882430
	C163	C	0.383326	0.334454	0.111108
	C164	C	0.678414	0.893435	0.375855
	C165	C	0.680065	0.125166	0.614911
	C166	C	0.326693	0.893843	0.615835
	C167	C	0.329142	0.124989	0.378886
	C168	C	0.882713	0.392833	0.173283
	C169	C	0.122707	0.625193	0.173831
	C170	C	0.125720	0.395081	0.818051
	C171	C	0.885615	0.624636	0.821638
	C172	C	0.184380	0.885824	0.383264
	C173	C	0.183199	0.131291	0.609969
	C174	C	0.828049	0.128545	0.381363
	C175	C	0.823588	0.888263	0.609182
	C176	C	0.389292	0.184955	0.879829
	C177	C	0.618639	0.190032	0.115022
	C178	C	0.389447	0.834104	0.115494
	C179	C	0.618445	0.834723	0.875797
	C180	C	0.390240	0.890404	0.175042
	C181	C	0.617856	0.135311	0.175373
	C182	C	0.390762	0.131310	0.818882
	C183	C	0.616747	0.889049	0.815869
	C184	C	0.888400	0.184031	0.380665
	C185	C	0.124197	0.187715	0.610261
	C186	C	0.123248	0.831045	0.381707
	C187	C	0.883544	0.832912	0.610404
	C188	C	0.180582	0.394441	0.876282
	C189	C	0.179380	0.625530	0.116731
	C190	C	0.824785	0.393400	0.117043
	C191	C	0.829934	0.625211	0.879481
	C192	C	0.406944	0.105340	0.595777
	C193	C	0.600545	0.913334	0.593993
	C194	C	0.604928	0.106837	0.398006
	C195	C	0.407614	0.913994	0.397636
	C196	C	0.602402	0.412957	0.091046
	C197	C	0.606872	0.609181	0.902680
	C198	C	0.403204	0.609631	0.089861
	C199	C	0.402554	0.410125	0.902898
	C200	C	0.098685	0.607562	0.395542
	C201	C	0.909818	0.607280	0.599469
	C202	C	0.098283	0.413004	0.595631
	C203	C	0.909987	0.408491	0.396381
	C204	C	0.905026	0.605014	0.097832
	C205	C	0.101111	0.413506	0.093913
	C206	C	0.103079	0.606375	0.898918
	C207	C	0.906640	0.413533	0.899357
	C208	C	0.103573	0.911679	0.589837
	C209	C	0.106470	0.106962	0.402340
	C210	C	0.903398	0.107569	0.589115
	C211	C	0.902168	0.906625	0.401263
	C212	C	0.598540	0.109611	0.895312
	C213	C	0.409711	0.109855	0.099389
	C214	C	0.597828	0.914992	0.094803
	C215	C	0.409381	0.911649	0.897047
	Zn216	Zn	0.503466	0.009815	0.745598
	Zn217	Zn	0.504387	0.012350	0.248626
	Zn218	Zn	0.755744	0.509847	-0.002446
	Zn219	Zn	0.251499	0.510167	-0.003581
	Zn220	Zn	0.003564	0.758198	0.495986
	Zn221	Zn	0.005300	0.258926	0.495883
	Zn222	Zn	0.004771	0.509981	0.749329
	Zn223	Zn	0.003462	0.509188	0.245487
	Zn224	Zn	0.504353	0.761551	-0.004421
	Zn225	Zn	0.503060	0.259987	-0.003462
	Zn226	Zn	0.752255	0.008653	0.495307
	Zn227	Zn	0.256980	0.008752	0.496682
	N228	N	0.416372	0.973061	0.675618
	N229	N	0.588974	0.046928	0.673555
	N230	N	0.592355	0.974799	0.315745
	N231	N	0.419841	0.047895	0.320906
	N232	N	0.684333	0.422478	0.961265
	N233	N	0.685230	0.598653	0.033557
	N234	N	0.322828	0.598178	0.960242
	N235	N	0.321762	0.423081	0.032998
	N236	N	0.965847	0.682678	0.414367
	N237	N	0.041388	0.687538	0.581743
	N238	N	0.966906	0.332768	0.580165
	N239	N	0.043006	0.332381	0.411849
	N240	N	0.968170	0.421893	0.678101
	N241	N	0.040359	0.598966	0.679324
	N242	N	0.967688	0.595506	0.317356
	N243	N	0.039785	0.419857	0.313525
	N244	N	0.421658	0.686308	0.957896
	N245	N	0.589684	0.689739	0.033617
	N246	N	0.586818	0.334352	0.959345
	N247	N	0.417584	0.332813	0.034202
	N248	N	0.679935	0.971782	0.410810
	N249	N	0.680734	0.046359	0.581038
	N250	N	0.327248	0.972029	0.581875
	N251	N	0.328042	0.046036	0.411287
	N252	N	0.917469	0.471416	0.174784
	N253	N	0.088819	0.546516	0.173946
	N254	N	0.092440	0.473929	0.817404
	N255	N	0.918746	0.545901	0.820210
	N256	N	0.186399	0.920010	0.460592
	N257	N	0.185653	0.096550	0.532777
	N258	N	0.824219	0.095857	0.458918
	N259	N	0.821334	0.920241	0.531418
	N260	N	0.466267	0.185360	0.913696
	N261	N	0.541399	0.189544	0.081685
	N262	N	0.466335	0.834350	0.080265
	N263	N	0.541478	0.834340	0.911081
	N264	N	0.467653	0.925210	0.176522
	N265	N	0.540026	0.101504	0.179164
	N266	N	0.468690	0.098923	0.815219
	N267	N	0.538883	0.921866	0.814294
	N268	N	0.921746	0.184955	0.457683
	N269	N	0.090274	0.187248	0.533450
	N270	N	0.087462	0.831986	0.458130
	N271	N	0.918146	0.831074	0.533602
	N272	N	0.180749	0.472769	0.911255
	N273	N	0.179911	0.547105	0.081665
	N274	N	0.823863	0.472192	0.084546
	N275	N	0.828760	0.546893	0.913358
	O276	O	0.585117	0.539234	0.488967
	H277	H	0.580236	0.550307	0.494104
	H278	H	0.584841	0.539651	0.496172
	O279	O	0.952497	0.038454	0.902083
	H280	H	0.970789	0.040111	0.901555
	H281	H	0.946101	0.041761	0.887579
	O282	O	0.998970	1.030902	0.055365
	H283	H	0.985873	1.025222	0.057611
	H284	H	1.000101	1.023445	0.048751
	O285	O	0.992995	-0.073256	0.992149
	H286	H	0.993747	-0.069063	0.983092
	H287	H	0.997091	-0.073512	0.977544
	O288	O	0.456490	0.556787	0.607348
	H289	H	0.453019	0.550528	0.605710
	H290	H	0.454129	0.556786	0.598603
	O291	O	0.557551	0.482399	0.550617
	H292	H	0.567749	0.479273	0.555158
	H293	H	0.549348	0.461720	0.549375
	O294	O	0.424094	0.489459	0.524474
	H295	H	0.426071	0.487473	0.519920
	H296	H	0.423971	0.494682	0.519949
	O297	O	0.121953	-0.048516	0.924647
	H298	H	0.121220	-0.045216	0.919308
	H299	H	0.120865	-0.042575	0.924475
	O300	O	0.502957	0.377700	0.447191
	H301	H	0.498549	0.375587	0.436403
	H302	H	0.491774	0.382475	0.450338
	O303	O	0.488623	0.546281	0.512846
	H304	H	0.501999	0.555477	0.524362
	H305	H	0.486968	0.551338	0.517756
	O306	O	-0.079677	0.957587	1.078381
	H307	H	-0.084190	0.951866	1.071522
	H308	H	-0.092189	0.942869	1.084555
	O309	O	0.417220	0.486241	0.520751
	H310	H	0.408730	0.489090	0.525151
	H311	H	0.411153	0.491848	0.533584
	O312	O	-0.008998	-0.044673	0.006973
	H313	H	-0.025830	-0.043628	-0.009973
	H314	H	-0.008554	-0.056447	0.018354
	O315	O	1.090804	0.004521	0.068699
	H316	H	1.097264	0.006889	0.071575
	H317	H	1.089502	0.004860	0.065134
	O318	O	1.072368	0.994187	0.996304
	H319	H	1.084960	1.002316	1.004196
	H320	H	1.075295	0.993310	1.004304
	O321	O	-0.122522	0.009639	0.951233
	H322	H	-0.120118	0.017190	0.950308
	H323	H	-0.125031	0.004528	0.953313
	O324	O	0.435469	0.496228	0.558544
	H325	H	0.434981	0.503778	0.558304
	H326	H	0.432228	0.494156	0.555096
	O327	O	0.068405	0.068919	0.054167
	H328	H	0.058093	0.063692	0.062287
	H329	H	0.069510	0.065391	0.046564
	O330	O	0.519852	0.433952	0.529324
	H331	H	0.514190	0.435193	0.514073
	H332	H	0.518449	0.442143	0.533764
	O333	O	-0.090258	1.025375	0.993457
	H334	H	-0.100072	1.026346	0.988531
	H335	H	-0.096072	1.034393	0.995775
	O336	O	0.018159	-0.001457	0.060949
	H337	H	0.014065	-0.010188	0.074535
	H338	H	0.012834	0.007078	0.051594
	O339	O	0.547326	0.542889	0.508208
	H340	H	0.542438	0.539744	0.513765
	H341	H	0.543184	0.537008	0.517515
	O342	O	0.925659	1.114948	0.961426
	H343	H	0.928422	1.113761	0.955854
	H344	H	0.929841	1.109167	0.967584
	O345	O	0.990062	1.099890	0.023629
	H346	H	0.985925	1.090329	0.029373
	H347	H	0.992069	1.109044	0.043026
	O348	O	0.508086	0.466457	0.482258
	H349	H	0.503234	0.469937	0.481849
	H350	H	0.525965	0.469246	0.475316
	O351	O	0.470017	0.601074	0.463937
	H352	H	0.471684	0.599119	0.470373
	H353	H	0.477947	0.605164	0.455178
	O354	O	-0.017949	0.027210	0.026477
	H355	H	-0.009181	0.030442	0.016980
	H356	H	-0.030054	0.035245	0.031714
	O357	O	1.014247	-0.065950	0.921902
	H358	H	1.025770	-0.064332	0.908887
	H359	H	1.016290	-0.065616	0.935662
	O360	O	0.481712	0.415309	0.481492
	H361	H	0.488998	0.406347	0.484915
	H362	H	0.487850	0.408712	0.480445
	O363	O	0.534802	0.447417	0.414048
	H364	H	0.530934	0.442086	0.404853
	H365	H	0.537717	0.451442	0.409736
	O366	O	1.001616	1.030472	0.911198
	H367	H	1.013992	1.027688	0.904007
	H368	H	0.995495	1.035075	0.904917
	O369	O	0.987916	-0.166864	1.031000
	H370	H	0.988646	-0.172819	1.017639
	H371	H	0.987194	-0.175363	1.023956
	O372	O	0.087598	0.086555	0.000753
	H373	H	0.079721	0.090188	0.017052
	H374	H	0.084292	0.091468	0.008896
	O375	O	0.946778	0.038361	-0.085292
	H376	H	0.937751	0.049632	-0.087167
	H377	H	0.944418	0.037612	-0.088445
	O378	O	0.578979	0.525988	0.425562
	H379	H	0.575066	0.521539	0.421618
	H380	H	0.592667	0.530556	0.412935
	O381	O	0.531166	0.602356	0.545710
	H382	H	0.528080	0.601374	0.549617
	H383	H	0.539317	0.604957	0.547362
