data_Molecule from HDF5

_cell_length_a		16.560763
_cell_length_b		16.459329
_cell_length_c		16.426754
_cell_angle_alpha	89.952877
_cell_angle_beta	89.857128
_cell_angle_gamma	90.023658
_symmetry_space_group_name_H-M	'P 1'
_symmetry_Int_Tables_number		1

loop_
	_symmetry_equiv_pos_as_xyz
	x,y,z

loop_
	_atom_site_label
	_atom_site_type_symbol
	_atom_site_fract_x
	_atom_site_fract_y
	_atom_site_fract_z
	H0	H	0.394833	0.844646	0.709524
	H1	H	0.601650	0.161384	0.705904
	H2	H	0.605833	0.843784	0.266425
	H3	H	0.394220	0.160009	0.266904
	H4	H	0.721355	0.397488	0.831675
	H5	H	0.721105	0.608247	0.147466
	H6	H	0.276899	0.607622	0.833497
	H7	H	0.275033	0.392666	0.147672
	H8	H	0.842915	0.722011	0.384959
	H9	H	0.158601	0.721949	0.592658
	H10	H	0.843143	0.280964	0.592480
	H11	H	0.156643	0.276901	0.380887
	H12	H	0.841994	0.399103	0.707785
	H13	H	0.158344	0.604153	0.708236
	H14	H	0.841356	0.603867	0.270880
	H15	H	0.156848	0.393767	0.265325
	H16	H	0.396635	0.719871	0.830420
	H17	H	0.603867	0.723420	0.147661
	H18	H	0.604231	0.282059	0.831340
	H19	H	0.392365	0.278208	0.147706
	H20	H	0.722105	0.844623	0.381803
	H21	H	0.721634	0.158322	0.593729
	H22	H	0.277384	0.844839	0.595029
	H23	H	0.274606	0.158206	0.378886
	H24	H	0.895192	0.343058	0.209816
	H25	H	0.104439	0.659064	0.211861
	H26	H	0.106145	0.342997	0.769464
	H27	H	0.898059	0.659847	0.769380
	H28	H	0.225013	0.892649	0.330875
	H29	H	0.222380	0.108386	0.645985
	H30	H	0.776228	0.109250	0.331999
	H31	H	0.778029	0.895656	0.646389
	H32	H	0.342305	0.224854	0.886139
	H33	H	0.656303	0.224509	0.094573
	H34	H	0.341668	0.779913	0.094673
	H35	H	0.656520	0.781109	0.882919
	H36	H	0.343122	0.894064	0.213069
	H37	H	0.656713	0.106987	0.210568
	H38	H	0.340748	0.107058	0.769958
	H39	H	0.657554	0.900751	0.768937
	H40	H	0.893454	0.225178	0.332151
	H41	H	0.104058	0.221896	0.647376
	H42	H	0.106754	0.779049	0.329517
	H43	H	0.897489	0.782388	0.648011
	H44	H	0.222549	0.344064	0.884973
	H45	H	0.221713	0.659149	0.097813
	H46	H	0.777468	0.344313	0.094746
	H47	H	0.780807	0.660321	0.883904
	H48	H	0.401842	0.117010	0.573519
	H49	H	0.590895	0.887580	0.577630
	H50	H	0.589926	0.114216	0.400083
	H51	H	0.407540	0.889986	0.403011
	H52	H	0.590464	0.409323	0.104337
	H53	H	0.593242	0.588659	0.876531
	H54	H	0.413865	0.593824	0.103047
	H55	H	0.408536	0.422319	0.879816
	H56	H	0.111889	0.594552	0.404104
	H57	H	0.889220	0.591639	0.575373
	H58	H	0.112573	0.412955	0.578828
	H59	H	0.888673	0.414835	0.397281
	H60	H	0.114548	0.410291	0.580245
	H61	H	0.887851	0.589247	0.582290
	H62	H	0.110002	0.584946	0.402518
	H63	H	0.887381	0.407892	0.401838
	H64	H	0.406160	0.591043	0.105155
	H65	H	0.587223	0.592615	0.875893
	H66	H	0.592696	0.418671	0.101768
	H67	H	0.419350	0.414116	0.881025
	H68	H	0.587278	0.113030	0.399760
	H69	H	0.587657	0.887509	0.580826
	H70	H	0.411834	0.118318	0.585342
	H71	H	0.413845	0.890030	0.396996
	H72	H	0.907124	0.614469	0.076631
	H73	H	0.099543	0.386445	0.073469
	H74	H	0.091816	0.614448	0.901663
	H75	H	0.907576	0.386894	0.899252
	H76	H	0.088674	0.915650	0.599404
	H77	H	0.086470	0.092672	0.375370
	H78	H	0.905194	0.094714	0.605716
	H79	H	0.911807	0.905851	0.373807
	H80	H	0.611570	0.091823	0.897595
	H81	H	0.386619	0.092744	0.078285
	H82	H	0.611606	0.911871	0.078474
	H83	H	0.387695	0.908989	0.902374
	H84	H	0.610891	0.912061	0.075328
	H85	H	0.389660	0.089268	0.073188
	H86	H	0.612503	0.093797	0.895546
	H87	H	0.387394	0.915466	0.898698
	H88	H	0.907209	0.081537	0.600209
	H89	H	0.091120	0.085648	0.376576
	H90	H	0.087155	0.910381	0.600913
	H91	H	0.904243	0.915943	0.374017
	H92	H	0.088160	0.613676	0.898393
	H93	H	0.083422	0.387103	0.087989
	H94	H	0.910870	0.615764	0.082148
	H95	H	0.910882	0.388354	0.898518
	H96	H	0.415488	0.111674	0.571983
	H97	H	0.587405	0.890013	0.576570
	H98	H	0.588432	0.113535	0.402574
	H99	H	0.415277	0.892048	0.405051
	H100	H	0.582996	0.415046	0.100770
	H101	H	0.593506	0.595070	0.873730
	H102	H	0.411847	0.586088	0.101815
	H103	H	0.407683	0.409067	0.875304
	H104	H	0.114135	0.590142	0.395060
	H105	H	0.886335	0.595840	0.580628
	H106	H	0.113212	0.409784	0.576510
	H107	H	0.891738	0.414770	0.405129
	H108	H	0.913767	0.612751	0.077010
	H109	H	0.080552	0.395292	0.067628
	H110	H	0.087360	0.612747	0.903184
	H111	H	0.909733	0.388380	0.901893
	H112	H	0.092637	0.912257	0.602200
	H113	H	0.082884	0.085886	0.379169
	H114	H	0.917214	0.091658	0.599220
	H115	H	0.915804	0.916732	0.378377
	H116	H	0.612984	0.094353	0.898414
	H117	H	0.388544	0.086113	0.078938
	H118	H	0.610459	0.914849	0.077164
	H119	H	0.384123	0.909892	0.895778
	C120	C	0.377607	0.011342	0.609522
	C121	C	0.620132	0.993118	0.609524
	C122	C	0.621416	0.010085	0.367196
	C123	C	0.378581	0.994015	0.367484
	C124	C	0.620915	0.381948	-0.002200
	C125	C	0.622275	0.624291	0.980343
	C126	C	0.378591	0.622306	-0.001295
	C127	C	0.378517	0.381532	0.982745
	C128	C	0.008439	0.622338	0.367832
	C129	C	0.992082	0.623207	0.610824
	C130	C	0.009185	0.379447	0.610529
	C131	C	0.992353	0.379124	0.367340
	C132	C	0.878469	0.509962	0.110482
	C133	C	0.120990	0.493115	0.110772
	C134	C	0.121940	0.509523	0.868778
	C135	C	0.878622	0.492952	0.867973
	C136	C	0.122315	0.879746	0.496428
	C137	C	0.120191	0.121750	0.480667
	C138	C	0.877923	0.122546	0.497389
	C139	C	0.879270	0.880597	0.480326
	C140	C	0.507765	0.124874	0.866871
	C141	C	0.491595	0.122415	0.109739
	C142	C	0.507478	0.880009	0.109953
	C143	C	0.490652	0.880371	0.866587
	C144	C	0.375902	0.892149	0.669883
	C145	C	0.620865	0.113243	0.667129
	C146	C	0.623797	0.891603	0.306405
	C147	C	0.375573	0.112477	0.306393
	C148	C	0.681023	0.379463	0.878838
	C149	C	0.681544	0.626698	0.099845
	C150	C	0.317926	0.625168	0.880316
	C151	C	0.316424	0.376005	0.100621
	C152	C	0.890097	0.682151	0.366358
	C153	C	0.110961	0.682071	0.611293
	C154	C	0.890090	0.321079	0.611341
	C155	C	0.109683	0.317442	0.363354
	C156	C	0.889717	0.379544	0.668820
	C157	C	0.111176	0.623591	0.669060
	C158	C	0.889458	0.623088	0.309675
	C159	C	0.109723	0.375629	0.305626
	C160	C	0.377595	0.680890	0.878739
	C161	C	0.622950	0.683801	0.099841
	C162	C	0.622795	0.322075	0.878888
	C163	C	0.374830	0.318932	0.100575
	C164	C	0.681921	0.891728	0.363664
	C165	C	0.680663	0.111616	0.611513
	C166	C	0.317711	0.892329	0.612564
	C167	C	0.316131	0.111578	0.362298
	C168	C	0.876436	0.390616	0.170237
	C169	C	0.123159	0.611652	0.171987
	C170	C	0.124285	0.390686	0.809115
	C171	C	0.878622	0.612368	0.808920
	C172	C	0.183941	0.875784	0.377936
	C173	C	0.181103	0.125016	0.599169
	C174	C	0.816970	0.126722	0.379259
	C175	C	0.818801	0.877848	0.599367
	C176	C	0.389334	0.184675	0.866573
	C177	C	0.609565	0.183712	0.112785
	C178	C	0.389198	0.819441	0.112977
	C179	C	0.609120	0.821272	0.864666
	C180	C	0.389647	0.876863	0.171593
	C181	C	0.609639	0.125351	0.170493
	C182	C	0.388618	0.126046	0.808926
	C183	C	0.609726	0.880704	0.807750
	C184	C	0.875536	0.184115	0.379126
	C185	C	0.122767	0.182076	0.599730
	C186	C	0.125013	0.819007	0.377342
	C187	C	0.877890	0.821176	0.599863
	C188	C	0.182279	0.391221	0.866659
	C189	C	0.181624	0.611630	0.115192
	C190	C	0.817969	0.391249	0.113157
	C191	C	0.820221	0.612478	0.865959
	C192	C	0.402594	0.093954	0.584343
	C193	C	0.595653	0.909911	0.585113
	C194	C	0.595769	0.092163	0.393207
	C195	C	0.404667	0.912056	0.394108
	C196	C	0.595881	0.407164	0.080716
	C197	C	0.598185	0.599244	0.897160
	C198	C	0.403640	0.597335	0.081890
	C199	C	0.404447	0.407863	0.900120
	C200	C	0.090694	0.596933	0.393056
	C201	C	0.909363	0.599043	0.586676
	C202	C	0.091819	0.403820	0.585471
	C203	C	0.910558	0.404960	0.393796
	C204	C	0.903339	0.592586	0.085799
	C205	C	0.095219	0.411009	0.084016
	C206	C	0.096461	0.592309	0.893972
	C207	C	0.902444	0.409676	0.892879
	C208	C	0.096956	0.905430	0.579169
	C209	C	0.094302	0.095728	0.398437
	C210	C	0.902713	0.096608	0.580216
	C211	C	0.903720	0.905729	0.397179
	C212	C	0.590600	0.100259	0.890429
	C213	C	0.409852	0.096712	0.084112
	C214	C	0.589414	0.905616	0.084375
	C215	C	0.407879	0.904695	0.891549
	Zn216	Zn	0.498967	0.003121	0.737951
	Zn217	Zn	0.499246	0.001797	0.239123
	Zn218	Zn	0.749913	0.502481	-0.010320
	Zn219	Zn	0.249985	0.501539	-0.008874
	Zn220	Zn	0.000609	0.752070	0.488549
	Zn221	Zn	0.000226	0.250572	0.489051
	Zn222	Zn	0.000704	0.500818	0.739936
	Zn223	Zn	-0.000466	0.500854	0.238723
	Zn224	Zn	0.499076	0.751145	-0.011156
	Zn225	Zn	0.499671	0.253019	-0.010010
	Zn226	Zn	0.749678	0.000937	0.488690
	Zn227	Zn	0.249450	0.002108	0.487549
	N228	N	0.412367	0.967167	0.668261
	N229	N	0.583820	0.038544	0.666121
	N230	N	0.586803	0.966379	0.308273
	N231	N	0.413556	0.038363	0.309399
	N232	N	0.679998	0.415852	0.953943
	N233	N	0.681416	0.590561	0.024349
	N234	N	0.318576	0.589501	0.955973
	N235	N	0.318832	0.414325	0.026291
	N236	N	0.965170	0.681921	0.401682
	N237	N	0.035964	0.682094	0.576007
	N238	N	0.965416	0.320732	0.576059
	N239	N	0.035337	0.319093	0.400582
	N240	N	0.964989	0.414866	0.668763
	N241	N	0.036221	0.587742	0.668960
	N242	N	0.964269	0.586763	0.310224
	N243	N	0.035783	0.413127	0.307849
	N244	N	0.414557	0.679252	0.953559
	N245	N	0.587079	0.682628	0.024570
	N246	N	0.585890	0.323620	0.953830
	N247	N	0.413072	0.322404	0.026296
	N248	N	0.680659	0.966333	0.400655
	N249	N	0.680255	0.035899	0.576348
	N250	N	0.318203	0.967515	0.576086
	N251	N	0.317850	0.036809	0.399472
	N252	N	0.913195	0.465251	0.168793
	N253	N	0.086221	0.537004	0.169361
	N254	N	0.087471	0.465591	0.810092
	N255	N	0.914003	0.536909	0.809738
	N256	N	0.182536	0.912650	0.453028
	N257	N	0.179841	0.088467	0.523946
	N258	N	0.818749	0.088950	0.453689
	N259	N	0.819595	0.914022	0.523968
	N260	N	0.464506	0.184168	0.901585
	N261	N	0.535220	0.182225	0.075949
	N262	N	0.463434	0.821331	0.075404
	N263	N	0.534050	0.820887	0.900331
	N264	N	0.464140	0.913651	0.170160
	N265	N	0.535544	0.087971	0.168687
	N266	N	0.463331	0.089775	0.808757
	N267	N	0.534691	0.916522	0.808562
	N268	N	0.912953	0.181563	0.453596
	N269	N	0.085368	0.179915	0.525182
	N270	N	0.087513	0.821309	0.452071
	N271	N	0.914733	0.822686	0.524868
	N272	N	0.180938	0.466246	0.903051
	N273	N	0.180419	0.536846	0.077954
	N274	N	0.818908	0.466433	0.076923
	N275	N	0.820047	0.537057	0.902029
	O276	O	0.475948	0.280875	0.553294
	H277	H	0.469373	0.270614	0.563908
	H278	H	0.485924	0.279463	0.555573
	O279	O	0.705640	0.708633	0.503245
	H280	H	0.719755	0.704367	0.513675
	H281	H	0.694209	0.710457	0.523986
	O282	O	0.881896	1.020422	-0.125730
	H283	H	0.883825	1.029857	-0.121991
	H284	H	0.876427	1.006458	-0.129572
	O285	O	0.788944	0.192584	0.775807
	H286	H	0.789263	0.159797	0.765480
	H287	H	0.768045	0.203739	0.769152
	O288	O	0.104245	0.105020	0.001832
	H289	H	0.095029	0.114443	0.014702
	H290	H	0.106708	0.127364	-0.018720
	O291	O	1.062269	1.200252	-0.213814
	H292	H	1.044908	1.191727	-0.200201
	H293	H	1.048731	1.202056	-0.228778
	O294	O	0.527059	0.718621	-0.296307
	H295	H	0.531091	0.752547	-0.267591
	H296	H	0.573762	0.713305	-0.308197
	O297	O	0.303031	0.308781	0.684447
	H298	H	0.295694	0.322074	0.655286
	H299	H	0.306306	0.306631	0.701336
	O300	O	0.313686	0.514460	0.509654
	H301	H	0.309798	0.524721	0.526481
	H302	H	0.314141	0.527341	0.488131
	O303	O	-0.097574	0.218340	1.080933
	H304	H	-0.090294	0.209936	1.059159
	H305	H	-0.103414	0.231690	1.080824
	O306	O	-0.205293	0.923832	1.193146
	H307	H	-0.199466	0.947291	1.193219
	H308	H	-0.202835	0.929651	1.209855
	O309	O	1.110027	0.822640	0.857529
	H310	H	1.123621	0.828417	0.858063
	H311	H	1.115192	0.830449	0.878150
	O312	O	0.634592	0.635027	0.290422
	H313	H	0.620948	0.642171	0.314986
	H314	H	0.623157	0.634537	0.294006
	O315	O	-0.169214	-0.079436	1.063061
	H316	H	-0.181182	-0.082248	1.077956
	H317	H	-0.171722	-0.080980	1.049854
	O318	O	-0.435352	0.468616	0.421352
	H319	H	-0.426203	0.475254	0.415843
	H320	H	-0.440924	0.465728	0.428211
	O321	O	0.485604	0.627277	0.543461
	H322	H	0.476591	0.629950	0.560650
	H323	H	0.493816	0.627556	0.557473
	O324	O	1.119503	0.010616	0.791836
	H325	H	1.119006	0.007627	0.782629
	H326	H	1.115775	-0.002794	0.801027
	O327	O	1.698879	0.403484	0.546472
	H328	H	1.690861	0.406467	0.536864
	H329	H	1.704472	0.397571	0.543249
	O330	O	1.025443	0.215228	0.203783
	H331	H	1.042234	0.187377	0.201539
	H332	H	1.025916	0.247761	0.233981
	O333	O	1.191976	1.070030	0.972120
	H334	H	1.164452	1.078169	0.971079
	H335	H	1.207541	1.061422	0.970170
	O336	O	0.900785	0.024019	0.893803
	H337	H	0.903416	0.020367	0.884577
	H338	H	0.891778	0.022330	0.902624
	O339	O	0.303324	0.582611	0.458178
	H340	H	0.298206	0.562936	0.476058
	H341	H	0.298565	0.574166	0.448992
	O342	O	0.601920	0.302128	0.486951
	H343	H	0.592020	0.302322	0.463381
	H344	H	0.605547	0.287908	0.473430
	O345	O	0.011253	-0.149173	0.204277
	H346	H	0.015983	-0.157673	0.223036
	H347	H	-0.009066	-0.153491	0.199937
	O348	O	1.042672	-0.164976	0.769044
	H349	H	1.062672	-0.174292	0.755074
	H350	H	1.068977	-0.176649	0.761366
	O351	O	1.186494	1.187922	0.169938
	H352	H	1.198784	1.171720	0.157283
	H353	H	1.167502	1.194882	0.142437
	O354	O	0.716539	0.535429	0.527640
	H355	H	0.703098	0.523646	0.525303
	H356	H	0.729041	0.544883	0.539012
	O357	O	0.921461	0.873076	0.865039
	H358	H	0.924216	0.877353	0.858877
	H359	H	0.925203	0.860207	0.850202
	O360	O	0.285488	0.626935	0.478377
	H361	H	0.279908	0.639401	0.461726
	H362	H	0.284972	0.633048	0.480048
	O363	O	0.208676	0.891667	-0.220213
	H364	H	0.207929	0.896302	-0.199444
	H365	H	0.226849	0.883616	-0.242545
	O366	O	0.871798	-0.143039	0.805690
	H367	H	0.895815	-0.131024	0.809431
	H368	H	0.881361	-0.144443	0.823374
	O369	O	0.534928	0.409971	0.524478
	H370	H	0.520273	0.392331	0.541419
	H371	H	0.535483	0.404123	0.521074
	O372	O	0.532523	0.288279	0.278653
	H373	H	0.534478	0.269430	0.263034
	H374	H	0.534042	0.296572	0.272579
	O375	O	1.098221	0.860055	0.133310
	H376	H	1.100617	0.858045	0.149261
	H377	H	1.098352	0.859249	0.121826
	O378	O	0.314381	0.695930	0.375647
	H379	H	0.334090	0.707691	0.368132
	H380	H	0.325616	0.682882	0.383700
	O381	O	1.171613	0.055788	-0.080779
	H382	H	1.162490	0.057354	-0.084847
	H383	H	1.176032	0.043699	-0.103239
	O384	O	0.028853	-0.036864	0.860097
	H385	H	0.032499	-0.034018	0.864432
	H386	H	0.036808	-0.036711	0.865096
	O387	O	-0.217938	1.021450	1.020230
	H388	H	-0.214669	1.018728	1.017639
	H389	H	-0.207226	1.015905	1.021533
	O390	O	0.110223	0.049671	1.119094
	H391	H	0.093714	0.036811	1.102162
	H392	H	0.105353	0.055189	1.116990
	O393	O	1.157718	0.793577	0.030235
	H394	H	1.165862	0.780697	0.028123
	H395	H	1.152167	0.809923	0.046999
	O396	O	0.643918	0.360896	0.696684
	H397	H	0.635028	0.363354	0.677432
	H398	H	0.625736	0.366106	0.690204
	O399	O	0.369282	0.503859	0.683034
	H400	H	0.369507	0.516191	0.688838
	H401	H	0.365554	0.517717	0.691792
	O402	O	-0.007165	0.052640	1.033438
	H403	H	0.003892	0.041829	1.029980
	H404	H	0.000839	0.059957	1.047293
	O405	O	-0.202806	-0.201656	0.130917
	H406	H	-0.210749	-0.213274	0.141928
	H407	H	-0.211136	-0.181678	0.142310
	O408	O	0.387456	0.350245	0.373964
	H409	H	0.394630	0.354346	0.362030
	H410	H	0.399838	0.362339	0.372762
	O411	O	0.481660	0.359592	0.696501
	H412	H	0.452976	0.361541	0.702517
	H413	H	0.479242	0.346541	0.715341
	O414	O	0.409368	0.466419	0.322191
	H415	H	0.406973	0.455357	0.337559
	H416	H	0.415841	0.461783	0.321115
	O417	O	0.451811	0.618156	0.560277
	H418	H	0.451625	0.598793	0.554594
	H419	H	0.455914	0.610703	0.536375
	O420	O	0.509100	0.654460	0.316697
	H421	H	0.512251	0.663789	0.340432
	H422	H	0.498847	0.654959	0.301410
	O423	O	-0.145034	0.841595	-0.012332
	H424	H	-0.138549	0.826979	-0.005542
	H425	H	-0.142609	0.840134	-0.006747
	O426	O	0.595127	1.534710	1.287312
	H427	H	0.592055	1.550861	1.272058
	H428	H	0.571525	1.555528	1.279412
	O429	O	-0.048138	-0.785386	0.914927
	H430	H	-0.058909	-0.786356	0.920309
	H431	H	-0.064339	-0.775930	0.912874
	O432	O	0.706696	0.379233	0.345224
	H433	H	0.729644	0.385289	0.319056
	H434	H	0.690882	0.378704	0.345358
	O435	O	-0.056517	0.059532	0.208157
	H436	H	-0.043149	0.056040	0.206562
	H437	H	-0.064243	0.052986	0.209183
	O438	O	0.796715	0.204231	-0.062737
	H439	H	0.783608	0.224493	-0.082986
	H440	H	0.794766	0.194882	-0.071972
	O441	O	0.435598	0.589988	0.472477
	H442	H	0.448574	0.593008	0.475043
	H443	H	0.430827	0.600590	0.470905
	O444	O	-0.303380	0.702791	0.681548
	H445	H	-0.299371	0.656565	0.688829
	H446	H	-0.279113	0.720571	0.684794
	O447	O	1.214575	1.026621	1.203624
	H448	H	1.215602	1.039779	1.211215
	H449	H	1.222730	1.028637	1.219074
	O450	O	0.289678	0.525475	0.277725
	H451	H	0.287432	0.511131	0.284639
	H452	H	0.272181	0.531170	0.262165
	O453	O	0.410075	0.656536	0.636098
	H454	H	0.414971	0.673226	0.624048
	H455	H	0.411525	0.660484	0.654998
	O456	O	0.581361	0.551272	0.418179
	H457	H	0.595228	0.559810	0.416121
	H458	H	0.564208	0.554562	0.431438
	O459	O	0.669208	0.508908	0.698925
	H460	H	0.661417	0.491322	0.691652
	H461	H	0.666880	0.501889	0.703783
	O462	O	0.288236	1.287605	1.515273
	H463	H	0.296969	1.277658	1.504520
	H464	H	0.274957	1.278270	1.521088
	O465	O	0.967075	-0.092124	0.035605
	H466	H	0.955582	-0.095873	0.017374
	H467	H	0.965128	-0.087066	0.040776
