data_Molecule from HDF5

_cell_length_a		16.309113
_cell_length_b		16.442823
_cell_length_c		16.415860
_cell_angle_alpha	89.932110
_cell_angle_beta	90.027288
_cell_angle_gamma	90.079866
_symmetry_space_group_name_H-M	'P 1'
_symmetry_Int_Tables_number		1

loop_
	_symmetry_equiv_pos_as_xyz
	x,y,z

loop_
	_atom_site_label
	_atom_site_type_symbol
	_atom_site_fract_x
	_atom_site_fract_y
	_atom_site_fract_z
	H0	H	0.390183	0.848134	0.721460
	H1	H	0.609125	0.161955	0.713677
	H2	H	0.609083	0.845507	0.269729
	H3	H	0.395930	0.161159	0.269080
	H4	H	0.722769	0.401632	0.832123
	H5	H	0.727340	0.609484	0.150091
	H6	H	0.281507	0.611443	0.834053
	H7	H	0.282136	0.397776	0.150090
	H8	H	0.843437	0.723652	0.383985
	H9	H	0.161802	0.725425	0.596906
	H10	H	0.844494	0.281108	0.597800
	H11	H	0.163184	0.280389	0.385505
	H12	H	0.844330	0.397352	0.712830
	H13	H	0.162747	0.608886	0.712188
	H14	H	0.843859	0.606167	0.270716
	H15	H	0.164122	0.398210	0.272090
	H16	H	0.396131	0.727645	0.834903
	H17	H	0.612419	0.725490	0.150222
	H18	H	0.610431	0.283038	0.834079
	H19	H	0.398067	0.282803	0.150103
	H20	H	0.722700	0.844364	0.386905
	H21	H	0.723427	0.161449	0.595252
	H22	H	0.278904	0.845844	0.600624
	H23	H	0.282268	0.162223	0.387776
	H24	H	0.899227	0.344015	0.212130
	H25	H	0.114174	0.660465	0.216886
	H26	H	0.112060	0.345793	0.767371
	H27	H	0.892379	0.659446	0.765046
	H28	H	0.226432	0.895607	0.334267
	H29	H	0.225903	0.108977	0.650586
	H30	H	0.783458	0.105211	0.333188
	H31	H	0.781199	0.896629	0.650177
	H32	H	0.345731	0.229407	0.882065
	H33	H	0.662854	0.223845	0.096083
	H34	H	0.346296	0.777865	0.100059
	H35	H	0.663842	0.782438	0.885958
	H36	H	0.344139	0.895712	0.213380
	H37	H	0.662983	0.107366	0.211629
	H38	H	0.345422	0.113345	0.767479
	H39	H	0.662285	0.898102	0.769940
	H40	H	0.897291	0.224106	0.334611
	H41	H	0.113125	0.226655	0.649575
	H42	H	0.111174	0.779406	0.334405
	H43	H	0.892993	0.777903	0.648636
	H44	H	0.228531	0.346784	0.883153
	H45	H	0.228277	0.660763	0.098602
	H46	H	0.783452	0.344457	0.095286
	H47	H	0.782592	0.661576	0.885755
	H48	H	0.416544	0.117694	0.587176
	H49	H	0.590509	0.890824	0.579109
	H50	H	0.596912	0.119108	0.400123
	H51	H	0.414834	0.889820	0.400669
	H52	H	0.597765	0.410487	0.108842
	H53	H	0.593575	0.595967	0.876940
	H54	H	0.420399	0.588684	0.102297
	H55	H	0.418770	0.411760	0.877318
	H56	H	0.115850	0.588782	0.405712
	H57	H	0.893627	0.587409	0.569436
	H58	H	0.117249	0.413318	0.578272
	H59	H	0.890280	0.414027	0.403355
	H60	H	0.116913	0.416190	0.579702
	H61	H	0.889281	0.582348	0.585003
	H62	H	0.117997	0.591227	0.402140
	H63	H	0.889380	0.413006	0.399761
	H64	H	0.418503	0.593719	0.105670
	H65	H	0.594028	0.590741	0.878078
	H66	H	0.594685	0.420014	0.104306
	H67	H	0.412056	0.416779	0.877670
	H68	H	0.588779	0.117046	0.397778
	H69	H	0.592792	0.889014	0.583665
	H70	H	0.423919	0.111236	0.575901
	H71	H	0.415807	0.890684	0.403307
	H72	H	0.917177	0.614225	0.077742
	H73	H	0.091042	0.390457	0.083907
	H74	H	0.088501	0.615783	0.900391
	H75	H	0.916911	0.388079	0.894538
	H76	H	0.087541	0.910828	0.605852
	H77	H	0.092732	0.089897	0.379205
	H78	H	0.914521	0.094343	0.607196
	H79	H	0.917079	0.907994	0.377815
	H80	H	0.616961	0.089907	0.901188
	H81	H	0.388377	0.092599	0.080600
	H82	H	0.621251	0.908011	0.085805
	H83	H	0.392507	0.917860	0.908542
	H84	H	0.614666	0.914035	0.072975
	H85	H	0.387367	0.093996	0.081739
	H86	H	0.619415	0.096978	0.902809
	H87	H	0.390873	0.916465	0.905703
	H88	H	0.911631	0.090460	0.606227
	H89	H	0.089493	0.090369	0.380545
	H90	H	0.093946	0.915761	0.605317
	H91	H	0.906981	0.913028	0.375875
	H92	H	0.090974	0.614388	0.906350
	H93	H	0.089366	0.392220	0.078760
	H94	H	0.912860	0.618070	0.081574
	H95	H	0.919542	0.393993	0.907125
	H96	H	0.409963	0.114827	0.574019
	H97	H	0.587576	0.890118	0.583693
	H98	H	0.591672	0.115434	0.406061
	H99	H	0.413105	0.889701	0.403336
	H100	H	0.587718	0.411842	0.104051
	H101	H	0.589625	0.593541	0.880372
	H102	H	0.414363	0.588642	0.104604
	H103	H	0.418810	0.419031	0.880679
	H104	H	0.116629	0.593757	0.406494
	H105	H	0.886209	0.597684	0.579715
	H106	H	0.118184	0.413753	0.581064
	H107	H	0.888746	0.410505	0.403257
	H108	H	0.918948	0.616196	0.084051
	H109	H	0.095039	0.391296	0.079311
	H110	H	0.094666	0.616916	0.901452
	H111	H	0.906676	0.388292	0.904425
	H112	H	0.087022	0.917884	0.602061
	H113	H	0.091052	0.092769	0.379054
	H114	H	0.916390	0.090557	0.604902
	H115	H	0.915148	0.919097	0.380387
	H116	H	0.615271	0.092342	0.907249
	H117	H	0.388312	0.094946	0.079438
	H118	H	0.616899	0.923167	0.085623
	H119	H	0.390642	0.914869	0.909056
	C120	C	0.381591	0.011493	0.614252
	C121	C	0.623734	0.994489	0.614286
	C122	C	0.624479	0.012073	0.369982
	C123	C	0.381194	0.994722	0.370140
	C124	C	0.624975	0.382610	0.000437
	C125	C	0.626196	0.625762	0.983168
	C126	C	0.383315	0.624834	0.000463
	C127	C	0.382497	0.382129	0.982798
	C128	C	0.012038	0.623627	0.370740
	C129	C	0.994344	0.623579	0.612027
	C130	C	0.012185	0.381346	0.612922
	C131	C	0.995274	0.380371	0.370180
	C132	C	0.882921	0.511626	0.113254
	C133	C	0.125684	0.495209	0.113651
	C134	C	0.124997	0.511613	0.869572
	C135	C	0.881910	0.494687	0.869685
	C136	C	0.123716	0.881650	0.500291
	C137	C	0.124870	0.124133	0.483778
	C138	C	0.881742	0.123623	0.501362
	C139	C	0.880496	0.880776	0.482752
	C140	C	0.512137	0.126313	0.870220
	C141	C	0.494156	0.124986	0.112619
	C142	C	0.512459	0.881689	0.114047
	C143	C	0.495973	0.883606	0.873431
	C144	C	0.375161	0.894434	0.678493
	C145	C	0.626882	0.114122	0.673744
	C146	C	0.626748	0.892906	0.310001
	C147	C	0.378073	0.113794	0.309461
	C148	C	0.683678	0.382244	0.880250
	C149	C	0.687461	0.627990	0.102374
	C150	C	0.321621	0.628967	0.881735
	C151	C	0.322107	0.379806	0.102345
	C152	C	0.891571	0.683490	0.366958
	C153	C	0.114029	0.684925	0.614915
	C154	C	0.892511	0.320765	0.615681
	C155	C	0.115214	0.320428	0.367763
	C156	C	0.892244	0.378835	0.672919
	C157	C	0.114455	0.626880	0.672434
	C158	C	0.891578	0.625106	0.310396
	C159	C	0.115657	0.379019	0.310908
	C160	C	0.378847	0.687006	0.882281
	C161	C	0.630208	0.685719	0.102556
	C162	C	0.627889	0.323002	0.881119
	C163	C	0.380003	0.322498	0.102319
	C164	C	0.683498	0.892358	0.368667
	C165	C	0.683757	0.114081	0.614891
	C166	C	0.319284	0.893320	0.618508
	C167	C	0.321396	0.114218	0.368470
	C168	C	0.880499	0.392073	0.172780
	C169	C	0.130664	0.613339	0.175546
	C170	C	0.129509	0.393425	0.807877
	C171	C	0.877331	0.612760	0.807317
	C172	C	0.185780	0.878281	0.381643
	C173	C	0.186237	0.127121	0.602813
	C174	C	0.822640	0.124485	0.381134
	C175	C	0.820301	0.878078	0.602194
	C176	C	0.393271	0.188767	0.865302
	C177	C	0.614854	0.184084	0.114589
	C178	C	0.393673	0.819077	0.117817
	C179	C	0.615839	0.822968	0.868864
	C180	C	0.392473	0.878106	0.174024
	C181	C	0.614751	0.126148	0.172129
	C182	C	0.392939	0.130772	0.808242
	C183	C	0.615132	0.880631	0.811037
	C184	C	0.879416	0.183377	0.381795
	C185	C	0.129903	0.185865	0.602227
	C186	C	0.128064	0.820346	0.381627
	C187	C	0.876191	0.818944	0.601333
	C188	C	0.187432	0.393513	0.865996
	C189	C	0.187789	0.613487	0.116790
	C190	C	0.822417	0.392441	0.114837
	C191	C	0.821954	0.613845	0.867285
	C192	C	0.409072	0.093271	0.586929
	C193	C	0.597917	0.911661	0.589307
	C194	C	0.599810	0.095569	0.394341
	C195	C	0.407066	0.911677	0.395184
	C196	C	0.600482	0.407001	0.083944
	C197	C	0.600161	0.600759	0.900377
	C198	C	0.410082	0.598039	0.082761
	C199	C	0.408837	0.408227	0.900004
	C200	C	0.094981	0.598439	0.397064
	C201	C	0.911258	0.596940	0.585838
	C202	C	0.095582	0.407148	0.587186
	C203	C	0.911415	0.405274	0.395184
	C204	C	0.908894	0.594551	0.088372
	C205	C	0.099455	0.412622	0.087932
	C206	C	0.098835	0.594123	0.895303
	C207	C	0.907092	0.411834	0.894853
	C208	C	0.096982	0.907410	0.582759
	C209	C	0.098650	0.098355	0.401095
	C210	C	0.906901	0.098959	0.584478
	C211	C	0.905882	0.905933	0.399700
	C212	C	0.595175	0.100438	0.896327
	C213	C	0.409980	0.100977	0.087763
	C214	C	0.595820	0.907680	0.088644
	C215	C	0.413039	0.909233	0.900112
	Zn216	Zn	0.503184	0.003920	0.743570
	Zn217	Zn	0.502584	0.003905	0.241274
	Zn218	Zn	0.753634	0.503719	-0.008727
	Zn219	Zn	0.254546	0.503647	-0.008388
	Zn220	Zn	0.001896	0.752820	0.491203
	Zn221	Zn	0.003908	0.252397	0.492218
	Zn222	Zn	0.003120	0.502968	0.741167
	Zn223	Zn	0.004359	0.502914	0.242824
	Zn224	Zn	0.504499	0.753616	-0.007503
	Zn225	Zn	0.503894	0.254000	-0.008444
	Zn226	Zn	0.752356	0.002514	0.492388
	Zn227	Zn	0.252930	0.002998	0.492166
	N228	N	0.413210	0.969107	0.676032
	N229	N	0.590641	0.038678	0.673637
	N230	N	0.590664	0.968428	0.310674
	N231	N	0.414260	0.038242	0.310021
	N232	N	0.682191	0.418564	0.955647
	N233	N	0.685264	0.591565	0.026985
	N234	N	0.324153	0.591098	0.956289
	N235	N	0.323509	0.416141	0.026823
	N236	N	0.967405	0.683065	0.403703
	N237	N	0.038110	0.683141	0.578489
	N238	N	0.968474	0.322186	0.579131
	N239	N	0.038992	0.320955	0.403643
	N240	N	0.967659	0.415582	0.671432
	N241	N	0.038821	0.589787	0.671040
	N242	N	0.967258	0.588923	0.312477
	N243	N	0.040024	0.415503	0.312253
	N244	N	0.416583	0.684402	0.957267
	N245	N	0.592729	0.684407	0.027679
	N246	N	0.592225	0.323123	0.956869
	N247	N	0.416438	0.323551	0.026953
	N248	N	0.681979	0.967441	0.405469
	N249	N	0.681886	0.038755	0.578563
	N250	N	0.323722	0.966742	0.578957
	N251	N	0.323442	0.039213	0.405507
	N252	N	0.917290	0.467300	0.172027
	N253	N	0.092799	0.538611	0.173707
	N254	N	0.091484	0.467818	0.810074
	N255	N	0.914148	0.537694	0.808817
	N256	N	0.183295	0.915594	0.456505
	N257	N	0.183211	0.089474	0.528133
	N258	N	0.823753	0.088299	0.456623
	N259	N	0.822547	0.915592	0.527455
	N260	N	0.468442	0.186175	0.903154
	N261	N	0.538808	0.183659	0.078475
	N262	N	0.469426	0.821057	0.081411
	N263	N	0.540712	0.824577	0.906893
	N264	N	0.467429	0.916270	0.171887
	N265	N	0.538730	0.090000	0.170841
	N266	N	0.467626	0.092429	0.811240
	N267	N	0.539777	0.917830	0.813982
	N268	N	0.915399	0.183040	0.457393
	N269	N	0.092448	0.184164	0.527190
	N270	N	0.090045	0.822400	0.456301
	N271	N	0.912933	0.820510	0.525976
	N272	N	0.184832	0.468083	0.903729
	N273	N	0.184613	0.539089	0.078842
	N274	N	0.823576	0.467918	0.078764
	N275	N	0.824927	0.539721	0.905726
	O276	O	0.693944	0.517846	0.404649
	H277	H	0.696763	0.529823	0.390823
	H278	H	0.685352	0.513399	0.400571
	O279	O	0.521878	0.434482	0.536468
	H280	H	0.526700	0.433071	0.527939
	H281	H	0.515776	0.429194	0.529564
	O282	O	0.679484	0.686124	0.623602
	H283	H	0.686854	0.689677	0.598068
	H284	H	0.689916	0.661515	0.627230
	O285	O	0.975884	1.181059	0.023388
	H286	H	0.973369	1.166519	0.021897
	H287	H	0.976482	1.191476	0.018767
	O288	O	0.600079	0.361261	0.385793
	H289	H	0.592114	0.376982	0.375668
	H290	H	0.592700	0.350450	0.370982
	O291	O	0.652985	0.300680	0.520555
	H292	H	0.676602	0.290065	0.497357
	H293	H	0.640837	0.294166	0.504493
	O294	O	1.183692	1.188056	1.172475
	H295	H	1.183510	1.166781	1.161234
	H296	H	1.165199	1.170970	1.186221
	O297	O	0.517200	0.712253	0.355129
	H298	H	0.513300	0.718811	0.351639
	H299	H	0.515929	0.714721	0.346592
	O300	O	0.445682	0.456401	0.422786
	H301	H	0.436364	0.456090	0.415782
	H302	H	0.440124	0.463398	0.422245
	O303	O	0.531925	0.357150	0.534403
	H304	H	0.529106	0.363616	0.531245
	H305	H	0.532400	0.353753	0.535384
	O306	O	-0.035840	-0.018570	0.867419
	H307	H	-0.049574	-0.013296	0.866326
	H308	H	-0.028782	-0.021240	0.849429
	O309	O	1.024029	-0.219954	-0.229790
	H310	H	1.055447	-0.225958	-0.237775
	H311	H	1.051173	-0.234846	-0.248067
	O312	O	0.383892	0.576134	0.296585
	H313	H	0.372524	0.592255	0.292680
	H314	H	0.372448	0.585278	0.287636
	O315	O	0.357054	0.559722	0.591992
	H316	H	0.357687	0.555696	0.600890
	H317	H	0.356886	0.542305	0.596437
	O318	O	-0.158324	-0.021365	0.191008
	H319	H	-0.159146	0.001109	0.189094
	H320	H	-0.162505	-0.011852	0.194408
	O321	O	0.564036	0.424246	0.452287
	H322	H	0.561902	0.413018	0.460415
	H323	H	0.565114	0.424871	0.454082
	O324	O	0.986699	0.081231	1.042373
	H325	H	0.981332	0.086717	1.035744
	H326	H	0.975110	0.079950	1.025548
	O327	O	0.439166	0.361124	0.681732
	H328	H	0.445445	0.347246	0.674261
	H329	H	0.457125	0.365038	0.686601
	O330	O	0.060656	0.788017	1.052068
	H331	H	0.043337	0.806921	1.047277
	H332	H	0.042717	0.778916	1.079222
	O333	O	0.108358	1.018923	-0.213894
	H334	H	0.127311	1.015139	-0.217641
	H335	H	0.117866	1.034986	-0.212501
	O336	O	0.839073	1.003322	-0.203867
	H337	H	0.836031	0.987430	-0.221943
	H338	H	0.842331	0.992491	-0.190993
	O339	O	-0.017287	1.211583	0.780767
	H340	H	-0.021271	1.206606	0.764526
	H341	H	-0.003158	1.222391	0.778653
	O342	O	0.418658	0.382603	0.543870
	H343	H	0.410577	0.381405	0.549966
	H344	H	0.415709	0.392212	0.532299
	O345	O	0.211193	0.020114	0.857266
	H346	H	0.213682	0.048686	0.882769
	H347	H	0.219701	0.020178	0.859462
	O348	O	0.679773	0.426866	0.296341
	H349	H	0.684204	0.420217	0.299945
	H350	H	0.683617	0.434196	0.283694
	O351	O	0.883736	1.049990	0.018773
	H352	H	0.889039	1.058004	0.015632
	H353	H	0.871145	1.059245	0.003818
	O354	O	1.201641	0.805855	0.973418
	H355	H	1.202130	0.802474	0.991048
	H356	H	1.184509	0.785663	0.990962
	O357	O	0.219648	0.221784	0.011817
	H358	H	0.224044	0.245735	0.005573
	H359	H	0.224337	0.229667	0.046558
	O360	O	-0.179985	0.186542	0.818858
	H361	H	-0.141450	0.197349	0.813754
	H362	H	-0.190955	0.137732	0.812323
	O363	O	0.807809	0.204026	0.012846
	H364	H	0.810071	0.204984	0.005162
	H365	H	0.805238	0.210029	-0.018337
	O366	O	0.021161	0.209490	1.201412
	H367	H	0.035711	0.219202	1.221267
	H368	H	0.007196	0.198218	1.210858
	O369	O	1.103236	-0.004730	1.015088
	H370	H	1.103820	-0.015830	0.999993
	H371	H	1.096421	0.001057	1.001105
	O372	O	0.691069	0.553791	0.683853
	H373	H	0.699685	0.551223	0.664754
	H374	H	0.697376	0.534356	0.684875
	O375	O	-0.363190	-0.487003	1.362601
	H376	H	-0.368923	-0.478865	1.357912
	H377	H	-0.363764	-0.490049	1.356966
	O378	O	0.641154	0.647682	0.538553
	H379	H	0.624234	0.643383	0.526828
	H380	H	0.653740	0.663206	0.536000
	O381	O	-0.063715	0.787840	-0.072730
	H382	H	-0.044264	0.796216	-0.078082
	H383	H	-0.050836	0.782522	-0.096951
	O384	O	0.393689	0.493083	0.457773
	H385	H	0.403864	0.480312	0.467143
	H386	H	0.392942	0.487808	0.465321
	O387	O	0.420796	0.363683	0.494833
	H388	H	0.424725	0.379311	0.479608
	H389	H	0.428399	0.378887	0.490692
	O390	O	0.808712	0.824505	-0.015962
	H391	H	0.836369	0.811431	-0.036085
	H392	H	0.798165	0.792942	-0.016563
	O393	O	1.211829	0.026500	1.204471
	H394	H	1.208155	0.012597	1.211041
	H395	H	1.236492	0.016605	1.206289
	O396	O	0.350382	0.523598	0.696889
	H397	H	0.350305	0.525442	0.715048
	H398	H	0.344215	0.495158	0.689966
	O399	O	0.516376	0.339604	0.345430
	H400	H	0.525117	0.357158	0.347332
	H401	H	0.522093	0.324737	0.341865
	O402	O	1.048219	1.145129	-0.136392
	H403	H	1.080878	1.136093	-0.127235
	H404	H	1.037770	1.133251	-0.122597
	O405	O	0.529801	0.709898	0.699665
	H406	H	0.564241	0.709298	0.708778
	H407	H	0.529711	0.712614	0.714015
	O408	O	0.361002	0.566466	0.300487
	H409	H	0.392939	0.581248	0.304344
	H410	H	0.362110	0.575246	0.311393
	O411	O	1.180086	0.823466	0.810554
	H412	H	1.194285	0.832578	0.842145
	H413	H	1.191952	0.847646	0.821040
	O414	O	-0.102322	0.045833	1.187293
	H415	H	-0.104624	0.037682	1.180861
	H416	H	-0.092736	0.034697	1.169453
	O417	O	0.211360	1.006852	0.995175
	H418	H	0.203056	1.022554	1.015213
	H419	H	0.197199	1.020026	0.996979
	O420	O	-0.178124	0.819249	1.151601
	H421	H	-0.184528	0.805072	1.118956
	H422	H	-0.185806	0.863960	1.163790
	O423	O	0.050316	0.949398	0.187148
	H424	H	0.060022	0.943282	0.189024
	H425	H	0.036993	0.945550	0.171846
	O426	O	0.313139	0.680344	0.403258
	H427	H	0.315934	0.663120	0.427076
	H428	H	0.306000	0.691610	0.417608
	O429	O	0.502232	0.715951	0.480467
	H430	H	0.512012	0.711092	0.510643
	H431	H	0.485217	0.726082	0.483947
	O432	O	0.492430	0.555449	0.555782
	H433	H	0.498423	0.553178	0.569174
	H434	H	0.490355	0.554566	0.555104
	O435	O	-0.016689	-0.214151	0.205739
	H436	H	-0.037603	-0.194857	0.195430
	H437	H	-0.024981	-0.243684	0.239618
	O438	O	-0.205154	1.005239	0.921959
	H439	H	-0.198891	0.984630	0.923467
	H440	H	-0.206154	0.995046	0.929134
	O441	O	0.323594	0.430572	0.618392
	H442	H	0.335549	0.424604	0.610440
	H443	H	0.326982	0.429764	0.613521
