data_Molecule from HDF5

_cell_length_a		16.377201
_cell_length_b		16.112978
_cell_length_c		16.445077
_cell_angle_alpha	90.177321
_cell_angle_beta	89.902531
_cell_angle_gamma	89.604391
_symmetry_space_group_name_H-M	'P 1'
_symmetry_Int_Tables_number		1

loop_
	_symmetry_equiv_pos_as_xyz
	x,y,z

loop_
	_atom_site_label
	_atom_site_type_symbol
	_atom_site_fract_x
	_atom_site_fract_y
	_atom_site_fract_z
	H0	H	0.392735	0.828268	0.722694
	H1	H	0.595589	0.154633	0.722178
	H2	H	0.596190	0.825878	0.287392
	H3	H	0.391454	0.153912	0.289395
	H4	H	0.711678	0.386134	0.843161
	H5	H	0.710987	0.594027	0.163568
	H6	H	0.273937	0.594642	0.841215
	H7	H	0.271168	0.387272	0.161593
	H8	H	0.830969	0.709651	0.404400
	H9	H	0.155498	0.704446	0.601844
	H10	H	0.829081	0.279985	0.597092
	H11	H	0.155338	0.273525	0.401643
	H12	H	0.831679	0.387882	0.719945
	H13	H	0.151888	0.594874	0.723679
	H14	H	0.830967	0.596446	0.284283
	H15	H	0.153428	0.386967	0.281096
	H16	H	0.392117	0.708869	0.842024
	H17	H	0.588634	0.704703	0.166234
	H18	H	0.594153	0.271053	0.843023
	H19	H	0.394164	0.278121	0.165885
	H20	H	0.709016	0.825599	0.405521
	H21	H	0.707768	0.155246	0.604405
	H22	H	0.277810	0.827278	0.606372
	H23	H	0.275711	0.153841	0.404740
	H24	H	0.891448	0.328179	0.218564
	H25	H	0.095279	0.654132	0.221408
	H26	H	0.095296	0.326268	0.783808
	H27	H	0.889290	0.653845	0.785230
	H28	H	0.215323	0.885460	0.344906
	H29	H	0.213347	0.098028	0.662936
	H30	H	0.773080	0.093878	0.343575
	H31	H	0.774795	0.886524	0.663848
	H32	H	0.330764	0.207975	0.905262
	H33	H	0.654578	0.205253	0.103655
	H34	H	0.329588	0.775943	0.105160
	H35	H	0.653969	0.772446	0.905710
	H36	H	0.332375	0.885388	0.227310
	H37	H	0.653410	0.090845	0.222454
	H38	H	0.335111	0.099962	0.782566
	H39	H	0.653762	0.884673	0.785901
	H40	H	0.893727	0.205425	0.340861
	H41	H	0.092588	0.209772	0.663614
	H42	H	0.095757	0.773068	0.343296
	H43	H	0.894870	0.775752	0.665160
	H44	H	0.211796	0.327273	0.897403
	H45	H	0.208389	0.655263	0.103007
	H46	H	0.779926	0.326712	0.100843
	H47	H	0.774763	0.654729	0.901457
	H48	H	0.407000	0.108994	0.603403
	H49	H	0.578198	0.872831	0.605438
	H50	H	0.577347	0.104294	0.414563
	H51	H	0.406665	0.876656	0.423064
	H52	H	0.587202	0.399594	0.117837
	H53	H	0.588233	0.588666	0.886199
	H54	H	0.394540	0.583550	0.119039
	H55	H	0.397288	0.397666	0.886352
	H56	H	0.109325	0.576348	0.397492
	H57	H	0.879733	0.582180	0.586668
	H58	H	0.106281	0.406726	0.595553
	H59	H	0.880682	0.400734	0.412991
	H60	H	0.110036	0.396528	0.597312
	H61	H	0.879409	0.574239	0.598534
	H62	H	0.108982	0.591391	0.413926
	H63	H	0.877922	0.404209	0.403081
	H64	H	0.396837	0.577823	0.115579
	H65	H	0.589185	0.573652	0.889466
	H66	H	0.586988	0.400095	0.118315
	H67	H	0.401747	0.407340	0.891270
	H68	H	0.587894	0.107014	0.418037
	H69	H	0.580848	0.878756	0.587252
	H70	H	0.408727	0.103147	0.588045
	H71	H	0.397880	0.871450	0.413031
	H72	H	0.901102	0.608822	0.095004
	H73	H	0.076662	0.377671	0.089505
	H74	H	0.076417	0.606218	0.907632
	H75	H	0.906402	0.377039	0.916625
	H76	H	0.089043	0.902201	0.618577
	H77	H	0.085167	0.082078	0.388682
	H78	H	0.890461	0.088518	0.622595
	H79	H	0.902540	0.906024	0.391634
	H80	H	0.609313	0.079580	0.906411
	H81	H	0.377890	0.075135	0.103358
	H82	H	0.607487	0.905327	0.104958
	H83	H	0.376808	0.899191	0.912683
	H84	H	0.609476	0.889348	0.097924
	H85	H	0.373895	0.089852	0.102629
	H86	H	0.608567	0.085840	0.918409
	H87	H	0.380241	0.905207	0.916795
	H88	H	0.900265	0.073841	0.614884
	H89	H	0.088638	0.077543	0.390022
	H90	H	0.083056	0.901162	0.617215
	H91	H	0.905175	0.897681	0.389296
	H92	H	0.079821	0.603567	0.917812
	H93	H	0.084675	0.375611	0.086149
	H94	H	0.902470	0.607774	0.092476
	H95	H	0.893796	0.372106	0.911275
	H96	H	0.393843	0.109562	0.592984
	H97	H	0.595129	0.870777	0.596083
	H98	H	0.585215	0.109107	0.407475
	H99	H	0.410909	0.874577	0.409945
	H100	H	0.586700	0.400021	0.117616
	H101	H	0.575578	0.581031	0.892091
	H102	H	0.401328	0.582964	0.116430
	H103	H	0.407947	0.397427	0.890214
	H104	H	0.102241	0.570420	0.417298
	H105	H	0.875645	0.588208	0.598466
	H106	H	0.106349	0.398981	0.587298
	H107	H	0.875687	0.393998	0.406549
	H108	H	0.899065	0.608791	0.092559
	H109	H	0.083273	0.374330	0.095217
	H110	H	0.087182	0.608117	0.910789
	H111	H	0.905917	0.372255	0.903022
	H112	H	0.086062	0.895822	0.619652
	H113	H	0.082916	0.077567	0.391050
	H114	H	0.908591	0.090795	0.617252
	H115	H	0.896796	0.900580	0.387584
	H116	H	0.604559	0.072727	0.917200
	H117	H	0.379720	0.082951	0.090784
	H118	H	0.602933	0.902593	0.088244
	H119	H	0.378712	0.905916	0.909260
	C120	C	0.372655	-0.000471	0.625854
	C121	C	0.614730	0.982392	0.626193
	C122	C	0.614324	-0.001509	0.383340
	C123	C	0.373395	0.981862	0.384714
	C124	C	0.615669	0.368554	0.011824
	C125	C	0.613338	0.611547	0.995712
	C126	C	0.368228	0.613187	0.010982
	C127	C	0.371331	0.369994	0.995074
	C128	C	0.000602	0.612230	0.380295
	C129	C	0.984516	0.611935	0.624759
	C130	C	0.000808	0.370548	0.622608
	C131	C	0.984441	0.368283	0.377962
	C132	C	0.871730	0.500286	0.123057
	C133	C	0.112788	0.483206	0.122000
	C134	C	0.113172	0.498606	0.879990
	C135	C	0.870933	0.481922	0.880580
	C136	C	0.116589	0.868478	0.512715
	C137	C	0.114673	0.111294	0.495438
	C138	C	0.869878	0.113841	0.511829
	C139	C	0.872242	0.870114	0.495704
	C140	C	0.501605	0.112209	0.883385
	C141	C	0.483652	0.112738	0.127739
	C142	C	0.500047	0.868682	0.127414
	C143	C	0.484573	0.870428	0.882915
	C144	C	0.373483	0.876882	0.683483
	C145	C	0.614276	0.105649	0.683169
	C146	C	0.614822	0.875174	0.326284
	C147	C	0.372512	0.105075	0.327973
	C148	C	0.672739	0.367366	0.891026
	C149	C	0.671107	0.612415	0.116028
	C150	C	0.312181	0.614122	0.889689
	C151	C	0.311515	0.368861	0.114409
	C152	C	0.879360	0.671180	0.383083
	C153	C	0.106486	0.667390	0.622789
	C154	C	0.878308	0.316176	0.618847
	C155	C	0.106482	0.311177	0.380099
	C156	C	0.879563	0.369898	0.679988
	C157	C	0.104827	0.612650	0.683129
	C158	C	0.879224	0.614613	0.323543
	C159	C	0.105770	0.367969	0.320789
	C160	C	0.370945	0.670892	0.890190
	C161	C	0.610323	0.667427	0.117420
	C162	C	0.614192	0.310213	0.891128
	C163	C	0.372955	0.314861	0.116846
	C164	C	0.671091	0.874839	0.384734
	C165	C	0.670315	0.105944	0.624629
	C166	C	0.315975	0.876661	0.625938
	C167	C	0.314996	0.104959	0.385062
	C168	C	0.872316	0.377123	0.179926
	C169	C	0.113818	0.605508	0.181333
	C170	C	0.114548	0.375665	0.822130
	C171	C	0.870477	0.605041	0.823743
	C172	C	0.175480	0.867165	0.392521
	C173	C	0.172914	0.114887	0.615505
	C174	C	0.812606	0.112824	0.391399
	C175	C	0.814209	0.868524	0.616021
	C176	C	0.380053	0.170662	0.884292
	C177	C	0.605762	0.167974	0.124693
	C178	C	0.378293	0.813148	0.125616
	C179	C	0.605590	0.811214	0.884796
	C180	C	0.379913	0.867464	0.186890
	C181	C	0.605297	0.111102	0.183672
	C182	C	0.382241	0.116795	0.823094
	C183	C	0.605465	0.866841	0.825021
	C184	C	0.872551	0.168506	0.389908
	C185	C	0.113026	0.170744	0.615774
	C186	C	0.115927	0.811280	0.391530
	C187	C	0.874279	0.813189	0.616665
	C188	C	0.172314	0.375954	0.878921
	C189	C	0.170302	0.605935	0.122577
	C190	C	0.816851	0.376491	0.121478
	C191	C	0.813265	0.605379	0.881445
	C192	C	0.396380	0.085122	0.601752
	C193	C	0.591565	0.896387	0.602916
	C194	C	0.590540	0.084395	0.406545
	C195	C	0.398135	0.896402	0.408464
	C196	C	0.593322	0.392853	0.096056
	C197	C	0.590803	0.587923	0.911316
	C198	C	0.390844	0.588750	0.095148
	C199	C	0.395470	0.393767	0.911036
	C200	C	0.084936	0.586863	0.402831
	C201	C	0.899960	0.588478	0.601317
	C202	C	0.085595	0.393933	0.599877
	C203	C	0.900073	0.392489	0.400757
	C204	C	0.894327	0.586192	0.100108
	C205	C	0.088411	0.398048	0.097491
	C206	C	0.088202	0.583794	0.904800
	C207	C	0.895017	0.396230	0.903580
	C208	C	0.092904	0.892609	0.596611
	C209	C	0.092138	0.086289	0.411711
	C210	C	0.892853	0.091072	0.596199
	C211	C	0.895092	0.894239	0.411425
	C212	C	0.585475	0.086879	0.907127
	C213	C	0.399086	0.089597	0.105474
	C214	C	0.584557	0.892378	0.103929
	C215	C	0.400402	0.896175	0.906250
	Zn216	Zn	0.494087	-0.008579	0.754052
	Zn217	Zn	0.492663	-0.010246	0.255985
	Zn218	Zn	0.744177	0.491216	0.002662
	Zn219	Zn	0.240762	0.490481	0.000609
	Zn220	Zn	-0.005966	0.740766	0.503231
	Zn221	Zn	-0.006543	0.241107	0.502317
	Zn222	Zn	-0.007871	0.489973	0.752824
	Zn223	Zn	-0.008044	0.491494	0.250341
	Zn224	Zn	0.491152	0.740625	0.004107
	Zn225	Zn	0.492716	0.240708	0.004769
	Zn226	Zn	0.741983	-0.009622	0.504415
	Zn227	Zn	0.244641	-0.009339	0.504899
	N228	N	0.407864	0.954545	0.683651
	N229	N	0.580833	0.027619	0.684265
	N230	N	0.580057	0.953033	0.325409
	N231	N	0.407875	0.027438	0.327351
	N232	N	0.673825	0.403095	0.967015
	N233	N	0.673229	0.578511	0.039200
	N234	N	0.310225	0.579281	0.965829
	N235	N	0.310694	0.402627	0.037649
	N236	N	0.955839	0.669787	0.417661
	N237	N	0.030620	0.667142	0.587216
	N238	N	0.954726	0.316610	0.583805
	N239	N	0.030111	0.311146	0.414905
	N240	N	0.956953	0.402712	0.682622
	N241	N	0.027840	0.578963	0.684461
	N242	N	0.955585	0.578910	0.321704
	N243	N	0.028796	0.402343	0.319026
	N244	N	0.404807	0.670641	0.966708
	N245	N	0.575158	0.666925	0.041711
	N246	N	0.579357	0.310794	0.967228
	N247	N	0.409342	0.315397	0.041584
	N248	N	0.671046	0.952574	0.419430
	N249	N	0.670853	0.028150	0.589945
	N250	N	0.315466	0.954043	0.590925
	N251	N	0.315560	0.027463	0.419660
	N252	N	0.905620	0.455251	0.181127
	N253	N	0.078762	0.528123	0.181112
	N254	N	0.078343	0.452930	0.822865
	N255	N	0.905544	0.527240	0.823084
	N256	N	0.176095	0.901982	0.468935
	N257	N	0.173947	0.078654	0.539867
	N258	N	0.810458	0.079853	0.468478
	N259	N	0.813012	0.903277	0.539847
	N260	N	0.455192	0.168034	0.921086
	N261	N	0.529110	0.169046	0.090657
	N262	N	0.454111	0.813575	0.089432
	N263	N	0.529365	0.813230	0.920240
	N264	N	0.456804	0.901102	0.187905
	N265	N	0.528436	0.077621	0.185819
	N266	N	0.458770	0.081182	0.822320
	N267	N	0.529093	0.902795	0.823685
	N268	N	0.907336	0.169445	0.465824
	N269	N	0.077380	0.168712	0.540191
	N270	N	0.080223	0.811765	0.467228
	N271	N	0.909606	0.813944	0.540681
	N272	N	0.171705	0.453538	0.913945
	N273	N	0.169786	0.528833	0.086488
	N274	N	0.816365	0.454015	0.086614
	N275	N	0.813447	0.527992	0.916130
	O276	O	0.585863	0.384413	0.481174
	H277	H	0.590174	0.383013	0.478554
	H278	H	0.586575	0.390767	0.489974
	O279	O	0.537543	0.567969	0.642651
	H280	H	0.537779	0.578205	0.637682
	H281	H	0.540261	0.563861	0.650714
	O282	O	0.796569	-0.069493	0.992793
	H283	H	0.781461	-0.053671	0.986184
	H284	H	0.804517	-0.049564	0.995511
	O285	O	1.160695	0.970113	1.058263
	H286	H	1.164037	0.980837	1.074218
	H287	H	1.181601	0.964433	1.058309
	O288	O	0.949226	0.960950	0.938604
	H289	H	0.936983	0.960402	0.924655
	H290	H	0.954370	0.956212	0.950797
	O291	O	0.027936	1.007018	-0.098025
	H292	H	0.025885	1.021052	-0.107333
	H293	H	0.041293	1.006354	-0.092656
	O294	O	0.358712	0.426680	0.612975
	H295	H	0.369197	0.414732	0.626341
	H296	H	0.354964	0.425803	0.616348
	O297	O	0.622286	0.520573	0.608621
	H298	H	0.631592	0.524635	0.599517
	H299	H	0.613436	0.526124	0.608570
	O300	O	0.558371	0.391607	0.421890
	H301	H	0.555615	0.392159	0.424425
	H302	H	0.571913	0.370823	0.411834
	O303	O	0.594894	0.377133	0.369777
	H304	H	0.605967	0.371142	0.356634
	H305	H	0.592348	0.373151	0.378044
	O306	O	0.590837	0.576968	0.425923
	H307	H	0.601642	0.573763	0.431193
	H308	H	0.584458	0.577129	0.424045
	O309	O	0.466987	0.641608	0.559916
	H310	H	0.474632	0.642253	0.551918
	H311	H	0.472127	0.629872	0.563952
	O312	O	0.146190	0.047584	-0.127163
	H313	H	0.158352	0.039038	-0.144321
	H314	H	0.154422	0.034649	-0.124270
	O315	O	0.956979	0.865773	0.103278
	H316	H	0.959994	0.858146	0.103891
	H317	H	0.941355	0.858609	0.103930
	O318	O	0.032355	1.173733	1.104471
	H319	H	0.045318	1.159955	1.088377
	H320	H	0.040528	1.187731	1.122715
	O321	O	0.818950	-0.153602	1.015618
	H322	H	0.812555	-0.152518	1.021197
	H323	H	0.821933	-0.163335	1.013808
	O324	O	0.544652	0.487439	-0.377648
	H325	H	0.539373	0.494731	-0.361337
	H326	H	0.541066	0.492996	-0.396405
	O327	O	0.344161	0.564174	0.345767
	H328	H	0.357566	0.559650	0.351903
	H329	H	0.345009	0.577967	0.349140
	O330	O	-0.013583	0.002416	0.973845
	H331	H	-0.021693	0.026004	0.969376
	H332	H	-0.021724	0.002312	0.964646
	O333	O	0.156426	0.156491	1.167036
	H334	H	0.161217	0.135170	1.170006
	H335	H	0.154444	0.152445	1.164939
	O336	O	0.477925	0.331799	0.588499
	H337	H	0.482494	0.334032	0.573775
	H338	H	0.485578	0.326728	0.597561
	O339	O	0.952734	0.078558	-0.010032
	H340	H	0.957628	0.075758	-0.010588
	H341	H	0.957945	0.065854	-0.006847
	O342	O	-0.068028	0.145095	-0.171540
	H343	H	-0.071427	0.147033	-0.160815
	H344	H	-0.060487	0.139393	-0.177507
	O345	O	0.973371	-0.121612	1.083878
	H346	H	0.970759	-0.132767	1.079855
	H347	H	0.978963	-0.118951	1.069550
	O348	O	1.137245	0.905027	-0.181555
	H349	H	1.144858	0.901330	-0.187831
	H350	H	1.135487	0.872295	-0.194294
	O351	O	0.387794	0.456049	0.544077
	H352	H	0.380788	0.449565	0.541383
	H353	H	0.387794	0.473863	0.554618
	O354	O	1.027481	0.018626	1.200307
	H355	H	1.016955	0.022586	1.196602
	H356	H	1.033381	0.038288	1.201044
	O357	O	0.589532	0.446594	0.367607
	H358	H	0.592058	0.431481	0.366070
	H359	H	0.596157	0.443537	0.349930
	O360	O	0.487445	0.615344	0.522821
	H361	H	0.485012	0.611252	0.521833
	H362	H	0.479340	0.621771	0.525034
	O363	O	-0.129147	0.932682	0.819537
	H364	H	-0.135485	0.938898	0.810942
	H365	H	-0.137707	0.947588	0.804144
	O366	O	0.462163	0.470196	0.464063
	H367	H	0.453902	0.462579	0.447605
	H368	H	0.475345	0.471193	0.460244
	O369	O	-0.124364	1.116364	0.161902
	H370	H	-0.122173	1.111958	0.151157
	H371	H	-0.101448	1.100424	0.167306
	O372	O	0.052743	1.091892	-0.046343
	H373	H	0.046201	1.091775	-0.046722
	H374	H	0.067069	1.095732	-0.042558
	O375	O	0.375311	0.552987	0.496631
	H376	H	0.385765	0.546040	0.490140
	H377	H	0.372264	0.561918	0.486786
	O378	O	0.417228	0.371841	0.582017
	H379	H	0.423855	0.380598	0.587935
	H380	H	0.411881	0.371060	0.588852
	O381	O	0.856718	0.143969	-0.110187
	H382	H	0.865527	0.140319	-0.113861
	H383	H	0.859225	0.150853	-0.103157
	O384	O	1.153422	0.942571	0.149510
	H385	H	1.152119	0.943473	0.148975
	H386	H	1.130631	0.936007	0.145485
	O387	O	0.010054	0.110293	-0.054466
	H388	H	0.026163	0.103283	-0.057064
	H389	H	0.027126	0.113636	-0.040098
	O390	O	-0.017989	0.834727	0.182082
	H391	H	-0.018774	0.821591	0.195297
	H392	H	-0.029225	0.846723	0.169876
	O393	O	1.101041	0.832661	0.943485
	H394	H	1.125987	0.820511	0.948350
	H395	H	1.088971	0.817203	0.928231
	O396	O	0.487807	0.474527	0.356797
	H397	H	0.478475	0.471941	0.360848
	H398	H	0.484921	0.475039	0.363722
	O399	O	0.077046	0.814410	0.877559
	H400	H	0.056806	0.805951	0.893917
	H401	H	0.060648	0.813421	0.889862
	O402	O	0.555504	0.332201	0.361768
	H403	H	0.566381	0.320161	0.350493
	H404	H	0.561509	0.329615	0.342060
	O405	O	1.585961	1.599076	0.590951
	H406	H	1.579418	1.599006	0.591333
	H407	H	1.595669	1.596123	0.584945
	O408	O	0.841093	0.910665	0.159475
	H409	H	0.833227	0.905875	0.157001
	H410	H	0.850827	0.920488	0.151773
	O411	O	0.464278	-0.473920	0.513434
	H412	H	0.460487	-0.474891	0.505090
	H413	H	0.478628	-0.483051	0.506304
	O414	O	0.537119	0.574737	0.380448
	H415	H	0.542105	0.574907	0.381641
	H416	H	0.526540	0.574573	0.375068
	O417	O	0.334665	0.540363	0.632727
	H418	H	0.326194	0.529826	0.622395
	H419	H	0.333997	0.538874	0.643335
