data_Molecule from HDF5

_cell_length_a		16.307636
_cell_length_b		16.327031
_cell_length_c		16.423083
_cell_angle_alpha	89.858228
_cell_angle_beta	89.855315
_cell_angle_gamma	90.286567
_symmetry_space_group_name_H-M	'P 1'
_symmetry_Int_Tables_number		1

loop_
	_symmetry_equiv_pos_as_xyz
	x,y,z

loop_
	_atom_site_label
	_atom_site_type_symbol
	_atom_site_fract_x
	_atom_site_fract_y
	_atom_site_fract_z
	H0	H	0.385135	0.833959	0.721124
	H1	H	0.596348	0.154660	0.721147
	H2	H	0.596963	0.834765	0.282777
	H3	H	0.387153	0.154185	0.280451
	H4	H	0.712060	0.393059	0.842754
	H5	H	0.712728	0.598715	0.162527
	H6	H	0.277053	0.595909	0.841247
	H7	H	0.274383	0.389037	0.161248
	H8	H	0.834392	0.716470	0.396296
	H9	H	0.156847	0.712087	0.600266
	H10	H	0.832871	0.278040	0.603096
	H11	H	0.155715	0.279381	0.399645
	H12	H	0.833652	0.390153	0.722524
	H13	H	0.155040	0.599830	0.720918
	H14	H	0.834632	0.602357	0.279230
	H15	H	0.155309	0.393885	0.282114
	H16	H	0.389466	0.714922	0.842770
	H17	H	0.599897	0.716835	0.160543
	H18	H	0.596633	0.274457	0.843075
	H19	H	0.388967	0.273022	0.161049
	H20	H	0.714981	0.836059	0.395872
	H21	H	0.712858	0.155550	0.605014
	H22	H	0.269666	0.836501	0.606609
	H23	H	0.278222	0.158443	0.402413
	H24	H	0.890378	0.335844	0.222527
	H25	H	0.100697	0.655201	0.218980
	H26	H	0.095266	0.333179	0.782774
	H27	H	0.888045	0.655227	0.780478
	H28	H	0.212105	0.897623	0.342380
	H29	H	0.213014	0.102252	0.662620
	H30	H	0.772495	0.102125	0.343216
	H31	H	0.772582	0.889964	0.660453
	H32	H	0.332060	0.211810	0.898355
	H33	H	0.652471	0.212554	0.104899
	H34	H	0.332453	0.773715	0.105119
	H35	H	0.654200	0.775471	0.896863
	H36	H	0.332176	0.888908	0.222346
	H37	H	0.651048	0.100646	0.223835
	H38	H	0.332609	0.097064	0.782338
	H39	H	0.651581	0.887292	0.778714
	H40	H	0.891493	0.216445	0.341528
	H41	H	0.096315	0.217071	0.662653
	H42	H	0.100867	0.776402	0.342922
	H43	H	0.886695	0.771955	0.660158
	H44	H	0.211122	0.332331	0.898035
	H45	H	0.215670	0.654390	0.101965
	H46	H	0.774600	0.334386	0.107016
	H47	H	0.772734	0.654793	0.897552
	H48	H	0.410045	0.106730	0.588904
	H49	H	0.585835	0.879035	0.588846
	H50	H	0.577934	0.109857	0.404740
	H51	H	0.404111	0.880522	0.410714
	H52	H	0.582168	0.400565	0.116752
	H53	H	0.582652	0.581267	0.890415
	H54	H	0.398324	0.582967	0.117548
	H55	H	0.408038	0.404352	0.888993
	H56	H	0.107815	0.580225	0.408633
	H57	H	0.875747	0.592336	0.596094
	H58	H	0.108888	0.410097	0.595899
	H59	H	0.880101	0.413127	0.406213
	H60	H	0.110339	0.403211	0.591995
	H61	H	0.883561	0.583102	0.580639
	H62	H	0.112082	0.590288	0.404285
	H63	H	0.877192	0.399807	0.410140
	H64	H	0.407854	0.575130	0.111845
	H65	H	0.581159	0.585827	0.889429
	H66	H	0.584605	0.401656	0.118075
	H67	H	0.403461	0.395316	0.885132
	H68	H	0.577782	0.105623	0.418561
	H69	H	0.579587	0.880366	0.594618
	H70	H	0.395120	0.111776	0.591818
	H71	H	0.402839	0.882631	0.416471
	H72	H	0.898971	0.611218	0.090973
	H73	H	0.090557	0.379714	0.085346
	H74	H	0.088839	0.612225	0.903696
	H75	H	0.898931	0.380353	0.914108
	H76	H	0.083319	0.909785	0.615091
	H77	H	0.090380	0.089989	0.386614
	H78	H	0.903662	0.078177	0.612652
	H79	H	0.901731	0.902735	0.386269
	H80	H	0.606712	0.078965	0.909386
	H81	H	0.375769	0.086367	0.091867
	H82	H	0.604639	0.911614	0.091907
	H83	H	0.380235	0.909453	0.911306
	H84	H	0.609472	0.904589	0.097117
	H85	H	0.379299	0.079681	0.088768
	H86	H	0.609486	0.086606	0.908475
	H87	H	0.376384	0.899557	0.907495
	H88	H	0.912138	0.090854	0.613913
	H89	H	0.084634	0.084132	0.390665
	H90	H	0.076788	0.905829	0.614303
	H91	H	0.903031	0.912643	0.389724
	H92	H	0.076786	0.605669	0.912311
	H93	H	0.085452	0.376050	0.101981
	H94	H	0.910613	0.609784	0.094833
	H95	H	0.905002	0.379975	0.908258
	H96	H	0.406555	0.112442	0.602929
	H97	H	0.578641	0.883189	0.586626
	H98	H	0.589704	0.111523	0.412758
	H99	H	0.398248	0.879754	0.413468
	H100	H	0.583434	0.403369	0.116173
	H101	H	0.585850	0.584216	0.887273
	H102	H	0.410856	0.588047	0.114766
	H103	H	0.397466	0.404868	0.886162
	H104	H	0.107993	0.589924	0.415728
	H105	H	0.880964	0.573377	0.597607
	H106	H	0.106977	0.409656	0.588035
	H107	H	0.883562	0.408440	0.418889
	H108	H	0.907550	0.607235	0.083818
	H109	H	0.073643	0.383383	0.090371
	H110	H	0.092031	0.607432	0.918569
	H111	H	0.907145	0.383283	0.915835
	H112	H	0.082865	0.902526	0.617026
	H113	H	0.081475	0.092275	0.388453
	H114	H	0.897978	0.090656	0.619220
	H115	H	0.910663	0.905621	0.390428
	H116	H	0.605790	0.084154	0.915411
	H117	H	0.376864	0.079666	0.096374
	H118	H	0.607194	0.903201	0.087657
	H119	H	0.379389	0.901031	0.918244
	C120	C	0.370496	0.004189	0.625249
	C121	C	0.614290	0.986318	0.622824
	C122	C	0.614167	0.003719	0.380128
	C123	C	0.371156	0.986990	0.381944
	C124	C	0.614605	0.371874	0.011083
	C125	C	0.615392	0.616366	0.994075
	C126	C	0.373700	0.613877	0.009772
	C127	C	0.371406	0.370287	0.992512
	C128	C	0.003312	0.618260	0.378304
	C129	C	0.986268	0.615670	0.622624
	C130	C	0.002552	0.375075	0.623100
	C131	C	0.986466	0.376252	0.380879
	C132	C	0.873384	0.503762	0.122923
	C133	C	0.116331	0.485732	0.122821
	C134	C	0.115824	0.502137	0.880062
	C135	C	0.872097	0.487025	0.880828
	C136	C	0.113837	0.875801	0.510308
	C137	C	0.116037	0.120017	0.494452
	C138	C	0.872905	0.118231	0.509879
	C139	C	0.871883	0.873507	0.493080
	C140	C	0.501108	0.114234	0.880394
	C141	C	0.483267	0.114124	0.123278
	C142	C	0.501161	0.872981	0.123769
	C143	C	0.484446	0.872010	0.880095
	C144	C	0.367635	0.882830	0.682638
	C145	C	0.615206	0.106785	0.681563
	C146	C	0.615918	0.883204	0.321438
	C147	C	0.369932	0.107166	0.321857
	C148	C	0.672788	0.373000	0.890719
	C149	C	0.674151	0.617817	0.114145
	C150	C	0.315601	0.614832	0.889480
	C151	C	0.313096	0.369782	0.113037
	C152	C	0.882525	0.677080	0.377268
	C153	C	0.108099	0.673759	0.621101
	C154	C	0.881102	0.316643	0.623004
	C155	C	0.107872	0.318532	0.380546
	C156	C	0.881643	0.372467	0.682407
	C157	C	0.107308	0.617749	0.680886
	C158	C	0.882802	0.620331	0.318699
	C159	C	0.107373	0.375301	0.321973
	C160	C	0.371479	0.674397	0.890230
	C161	C	0.617938	0.676867	0.113134
	C162	C	0.615451	0.314074	0.890704
	C163	C	0.370268	0.311871	0.113071
	C164	C	0.674755	0.883987	0.378006
	C165	C	0.673322	0.107264	0.624000
	C166	C	0.309542	0.884150	0.625758
	C167	C	0.315323	0.109131	0.382230
	C168	C	0.871554	0.383493	0.182800
	C169	C	0.118669	0.607090	0.180075
	C170	C	0.115125	0.381392	0.821494
	C171	C	0.870038	0.606999	0.820631
	C172	C	0.173422	0.876973	0.390320
	C173	C	0.173946	0.120826	0.614646
	C174	C	0.813274	0.120008	0.390321
	C175	C	0.811876	0.871340	0.612681
	C176	C	0.380214	0.172621	0.879715
	C177	C	0.604190	0.173370	0.124241
	C178	C	0.380511	0.813002	0.124488
	C179	C	0.605519	0.814248	0.878538
	C180	C	0.380449	0.870104	0.182953
	C181	C	0.603392	0.117813	0.183649
	C182	C	0.380442	0.115149	0.822191
	C183	C	0.604123	0.869467	0.819105
	C184	C	0.872241	0.177191	0.389638
	C185	C	0.115855	0.178161	0.614693
	C186	C	0.117659	0.816923	0.390388
	C187	C	0.868709	0.812489	0.612336
	C188	C	0.172281	0.380688	0.879405
	C189	C	0.176182	0.606480	0.122195
	C190	C	0.813905	0.382862	0.125207
	C191	C	0.812367	0.607085	0.878878
	C192	C	0.396267	0.088351	0.601430
	C193	C	0.588869	0.902693	0.597374
	C194	C	0.589170	0.087140	0.404846
	C195	C	0.394860	0.902820	0.406520
	C196	C	0.590397	0.395231	0.095095
	C197	C	0.590439	0.591087	0.910781
	C198	C	0.398578	0.589278	0.093144
	C199	C	0.396081	0.394385	0.908445
	C200	C	0.087461	0.593830	0.402518
	C201	C	0.902025	0.590518	0.598522
	C202	C	0.086873	0.400284	0.599018
	C203	C	0.902137	0.400182	0.404976
	C204	C	0.898504	0.587467	0.097274
	C205	C	0.090648	0.401619	0.099499
	C206	C	0.092432	0.586501	0.904348
	C207	C	0.896702	0.403074	0.905649
	C208	C	0.088116	0.899170	0.593773
	C209	C	0.092361	0.095897	0.410401
	C210	C	0.897348	0.093615	0.593310
	C211	C	0.897800	0.899540	0.410356
	C212	C	0.585378	0.090209	0.904355
	C213	C	0.399193	0.089094	0.099310
	C214	C	0.585148	0.898870	0.099346
	C215	C	0.400487	0.896206	0.905205
	Zn216	Zn	0.492807	-0.006685	0.752072
	Zn217	Zn	0.491515	-0.005526	0.252593
	Zn218	Zn	0.743513	0.494608	0.003301
	Zn219	Zn	0.244444	0.492707	0.001357
	Zn220	Zn	-0.006091	0.745062	0.501454
	Zn221	Zn	-0.005807	0.247750	0.501955
	Zn222	Zn	-0.005566	0.495086	0.752228
	Zn223	Zn	-0.005231	0.496001	0.251117
	Zn224	Zn	0.493577	0.744424	0.001996
	Zn225	Zn	0.492851	0.242146	0.001883
	Zn226	Zn	0.743371	-0.004067	0.501683
	Zn227	Zn	0.243050	-0.002749	0.503634
	N228	N	0.404622	0.958659	0.682599
	N229	N	0.579507	0.030335	0.681177
	N230	N	0.579014	0.958608	0.322471
	N231	N	0.403744	0.030303	0.321468
	N232	N	0.672336	0.408125	0.966547
	N233	N	0.672808	0.580998	0.039116
	N234	N	0.317134	0.577755	0.964703
	N235	N	0.313701	0.405140	0.037080
	N236	N	0.958357	0.676099	0.413466
	N237	N	0.031606	0.672624	0.585734
	N238	N	0.957196	0.318267	0.586889
	N239	N	0.031649	0.319000	0.416403
	N240	N	0.958138	0.408069	0.682444
	N241	N	0.030483	0.582755	0.682074
	N242	N	0.959230	0.584795	0.319014
	N243	N	0.030947	0.410268	0.322064
	N244	N	0.407186	0.674002	0.965953
	N245	N	0.582325	0.676280	0.037281
	N246	N	0.580203	0.313120	0.966719
	N247	N	0.405639	0.311857	0.036963
	N248	N	0.673935	0.960003	0.413742
	N249	N	0.672976	0.031285	0.588348
	N250	N	0.311148	0.960713	0.591030
	N251	N	0.315960	0.033397	0.419199
	N252	N	0.907503	0.459658	0.181588
	N253	N	0.082203	0.530999	0.180677
	N254	N	0.080761	0.458025	0.821788
	N255	N	0.906297	0.531174	0.821733
	N256	N	0.171060	0.912943	0.465927
	N257	N	0.174117	0.085389	0.538833
	N258	N	0.813507	0.083932	0.465983
	N259	N	0.813620	0.908575	0.537555
	N260	N	0.456432	0.172235	0.915213
	N261	N	0.528796	0.171133	0.087316
	N262	N	0.456851	0.814336	0.088694
	N263	N	0.529905	0.815599	0.915691
	N264	N	0.456583	0.906420	0.182796
	N265	N	0.527147	0.081737	0.183283
	N266	N	0.456610	0.079585	0.822477
	N267	N	0.527712	0.904567	0.819799
	N268	N	0.908665	0.175967	0.464897
	N269	N	0.080790	0.177784	0.538737
	N270	N	0.081084	0.816208	0.465894
	N271	N	0.905240	0.813558	0.536906
	N272	N	0.172903	0.456812	0.915116
	N273	N	0.174689	0.530065	0.087465
	N274	N	0.814944	0.458743	0.088689
	N275	N	0.813428	0.531382	0.915636
	O276	O	0.477393	0.385204	0.511582
	H277	H	0.477076	0.385618	0.522176
	H278	H	0.489378	0.388641	0.505683
	O279	O	0.501901	0.458321	0.544760
	H280	H	0.504730	0.486550	0.539938
	H281	H	0.508006	0.465840	0.546798
	O282	O	0.375994	0.585840	0.414561
	H283	H	0.393553	0.592599	0.414650
	H284	H	0.367274	0.568768	0.405912
	O285	O	1.004560	0.006657	-0.116261
	H286	H	1.007005	0.015090	-0.105399
	H287	H	1.003297	-0.002476	-0.119153
	O288	O	-0.625168	0.515384	0.653504
	H289	H	-0.614998	0.527449	0.648717
	H290	H	-0.629124	0.518739	0.670751
	O291	O	0.399423	0.363016	0.458978
	H292	H	0.388589	0.369738	0.456929
	H293	H	0.398171	0.364584	0.476287
	O294	O	0.536298	0.619832	0.557174
	H295	H	0.520431	0.620603	0.539902
	H296	H	0.535122	0.629665	0.559104
	O297	O	1.188659	1.096281	1.133917
	H298	H	1.206292	1.095997	1.136995
	H299	H	1.171734	1.101350	1.140458
	O300	O	0.090262	-0.040212	0.001979
	H301	H	0.081147	-0.031918	0.006342
	H302	H	0.090382	-0.052517	0.017793
	O303	O	0.529881	0.671297	0.644710
	H304	H	0.517636	0.676621	0.640948
	H305	H	0.527507	0.688310	0.617231
	O306	O	1.101216	-0.196601	-0.135883
	H307	H	1.101696	-0.181649	-0.134437
	H308	H	1.108420	-0.184987	-0.128960
	O309	O	0.465711	0.321960	0.572405
	H310	H	0.459906	0.338587	0.573451
	H311	H	0.452172	0.324898	0.585941
	O312	O	0.819682	1.047831	0.056792
	H313	H	0.812835	1.018207	0.079111
	H314	H	0.829849	1.029666	0.040276
	O315	O	0.450186	0.404433	0.597435
	H316	H	0.447025	0.424397	0.600377
	H317	H	0.465431	0.409873	0.601536
	O318	O	1.091850	0.849491	-0.218175
	H319	H	1.122798	0.848983	-0.206587
	H320	H	1.099067	0.830196	-0.249564
	O321	O	1.528082	-0.376712	1.524979
	H322	H	1.522873	-0.380245	1.519107
	H323	H	1.519968	-0.366720	1.523321
	O324	O	-0.087554	0.116701	1.050577
	H325	H	-0.103352	0.109500	1.066458
	H326	H	-0.102082	0.120488	1.044608
	O327	O	0.579107	0.454541	0.627924
	H328	H	0.555459	0.451270	0.638865
	H329	H	0.581427	0.466052	0.614688
	O330	O	0.517912	0.640145	0.327424
	H331	H	0.503429	0.619638	0.324984
	H332	H	0.527110	0.646982	0.304830
	O333	O	1.182467	1.090379	1.075234
	H334	H	1.165261	1.089944	1.079503
	H335	H	1.174927	1.089016	1.067134
	O336	O	0.630525	0.605060	0.432549
	H337	H	0.653482	0.604003	0.427365
	H338	H	0.634143	0.599779	0.424067
	O339	O	0.940644	0.047771	1.102045
	H340	H	0.945691	0.040191	1.094475
	H341	H	0.926167	0.054670	1.096645
	O342	O	0.118648	1.066438	0.896624
	H343	H	0.119587	1.070897	0.902669
	H344	H	0.105872	1.072218	0.899801
	O345	O	-0.100543	1.180272	0.935220
	H346	H	-0.115292	1.185527	0.939332
	H347	H	-0.111703	1.194528	0.915735
	O348	O	0.965113	0.825796	0.214786
	H349	H	0.975679	0.817456	0.230726
	H350	H	0.988566	0.822869	0.218050
	O351	O	-0.110555	-0.185307	-0.027508
	H352	H	-0.116934	-0.201450	-0.028500
	H353	H	-0.121050	-0.182021	-0.023147
	O354	O	1.046149	1.082235	-0.046713
	H355	H	1.037622	1.081656	-0.044400
	H356	H	1.061650	1.089197	-0.049378
	O357	O	-0.186907	0.995383	0.203050
	H358	H	-0.180642	0.968659	0.190606
	H359	H	-0.204873	0.992628	0.225815
	O360	O	0.417744	0.387323	0.343819
	H361	H	0.410905	0.382137	0.320104
	H362	H	0.419089	0.383691	0.351530
	O363	O	0.448702	0.486799	0.651060
	H364	H	0.441393	0.495759	0.651948
	H365	H	0.460173	0.486144	0.644840
	O366	O	0.430672	0.607359	0.495393
	H367	H	0.439823	0.587901	0.493553
	H368	H	0.421260	0.616611	0.487571
	O369	O	0.556883	0.541501	0.546571
	H370	H	0.555670	0.539821	0.521398
	H371	H	0.552226	0.552058	0.546003
	O372	O	-0.197918	0.906028	-0.025194
	H373	H	-0.208526	0.915057	-0.037208
	H374	H	-0.209125	0.897148	-0.048134
	O375	O	0.578672	0.338025	0.412841
	H376	H	0.576460	0.331417	0.428808
	H377	H	0.567853	0.330016	0.412523
	O378	O	0.636569	0.507662	0.386404
	H379	H	0.653879	0.505675	0.405026
	H380	H	0.630920	0.489931	0.386863
	O381	O	0.692341	0.447029	0.329142
	H382	H	0.691467	0.424452	0.330223
	H383	H	0.693213	0.425773	0.326078
	O384	O	-0.132421	0.916780	0.969270
	H385	H	-0.139837	0.912563	0.942691
	H386	H	-0.127401	0.906964	0.974515
	O387	O	1.347237	0.543008	0.377362
	H388	H	1.345099	0.547599	0.367106
	H389	H	1.346793	0.531979	0.383095
	O390	O	0.483618	0.601635	0.360277
	H391	H	0.493225	0.617806	0.349380
	H392	H	0.498917	0.605012	0.362423
	O393	O	0.873465	0.086556	0.798322
	H394	H	0.897294	0.076701	0.800914
	H395	H	0.888816	0.092377	0.783285
	O396	O	0.182614	0.879523	0.816982
	H397	H	0.171568	0.901705	0.825469
	H398	H	0.194732	0.882386	0.809756
	O399	O	0.370837	0.412413	0.586349
	H400	H	0.364023	0.418812	0.600658
	H401	H	0.373558	0.410131	0.592833
	O402	O	1.076964	0.170385	1.045247
	H403	H	1.067195	0.185075	1.049540
	H404	H	1.086563	0.173954	1.057115
	O405	O	-0.182152	0.020864	-0.211897
	H406	H	-0.191281	0.020101	-0.228213
	H407	H	-0.185657	0.044363	-0.224235
	O408	O	0.808450	0.824267	1.177386
	H409	H	0.853817	0.816746	1.189283
	H410	H	0.801578	0.829538	1.151335
	O411	O	0.958337	0.846229	0.012472
	H412	H	0.969241	0.852736	0.017528
	H413	H	0.939763	0.846205	-0.004396
	O414	O	-0.015200	0.128258	0.949248
	H415	H	-0.017370	0.138751	0.974539
	H416	H	-0.030670	0.105204	0.950822
	O417	O	0.624319	0.535470	0.618524
	H418	H	0.633813	0.534855	0.617346
	H419	H	0.628582	0.543627	0.617906
	O420	O	0.036293	0.928468	0.097826
	H421	H	0.037787	0.951193	0.100118
	H422	H	0.007270	0.921515	0.085699
	O423	O	1.123675	-0.150337	0.172460
	H424	H	1.117069	-0.145817	0.149529
	H425	H	1.131772	-0.125905	0.162138
	O426	O	0.128086	0.189914	1.112146
	H427	H	0.118992	0.189236	1.126805
	H428	H	0.133046	0.203751	1.112748
	O429	O	0.663279	0.367357	0.458717
	H430	H	0.663839	0.362661	0.468926
	H431	H	0.664873	0.364597	0.462235
