data_Molecule from HDF5

_cell_length_a		16.504884
_cell_length_b		16.405157
_cell_length_c		16.554475
_cell_angle_alpha	89.916014
_cell_angle_beta	89.940221
_cell_angle_gamma	90.059740
_symmetry_space_group_name_H-M	'P 1'
_symmetry_Int_Tables_number		1

loop_
	_symmetry_equiv_pos_as_xyz
	x,y,z

loop_
	_atom_site_label
	_atom_site_type_symbol
	_atom_site_fract_x
	_atom_site_fract_y
	_atom_site_fract_z
	H0	H	0.388380	0.842136	0.711476
	H1	H	0.604390	0.157205	0.707237
	H2	H	0.601519	0.840792	0.264846
	H3	H	0.392498	0.157155	0.265319
	H4	H	0.719920	0.396382	0.829588
	H5	H	0.719384	0.605776	0.143572
	H6	H	0.272834	0.608426	0.830783
	H7	H	0.276226	0.392346	0.143092
	H8	H	0.840381	0.717206	0.385573
	H9	H	0.155147	0.723674	0.594478
	H10	H	0.839407	0.280194	0.589043
	H11	H	0.156577	0.279919	0.385498
	H12	H	0.841081	0.392868	0.708896
	H13	H	0.155535	0.608327	0.711914
	H14	H	0.841991	0.603957	0.267564
	H15	H	0.155791	0.393657	0.266226
	H16	H	0.390711	0.722357	0.829233
	H17	H	0.601003	0.720705	0.143438
	H18	H	0.602104	0.281217	0.827933
	H19	H	0.395214	0.278396	0.143591
	H20	H	0.716219	0.839174	0.382402
	H21	H	0.718155	0.157130	0.589193
	H22	H	0.273292	0.841673	0.595585
	H23	H	0.277182	0.156618	0.382507
	H24	H	0.894324	0.341639	0.208168
	H25	H	0.105315	0.657774	0.209216
	H26	H	0.103455	0.341409	0.766370
	H27	H	0.891527	0.656145	0.763600
	H28	H	0.223149	0.890292	0.331338
	H29	H	0.222739	0.106827	0.642820
	H30	H	0.777748	0.104143	0.329339
	H31	H	0.777169	0.895143	0.643825
	H32	H	0.339824	0.220328	0.882678
	H33	H	0.656646	0.218641	0.088553
	H34	H	0.339285	0.776410	0.093149
	H35	H	0.655706	0.780692	0.883218
	H36	H	0.340482	0.891267	0.210204
	H37	H	0.654792	0.105220	0.207635
	H38	H	0.340530	0.105942	0.763810
	H39	H	0.655281	0.896272	0.766132
	H40	H	0.896343	0.218356	0.328700
	H41	H	0.104432	0.221977	0.644055
	H42	H	0.104981	0.776867	0.330146
	H43	H	0.894463	0.779402	0.645014
	H44	H	0.219141	0.341483	0.882370
	H45	H	0.220921	0.658006	0.092514
	H46	H	0.776747	0.342117	0.093264
	H47	H	0.778222	0.657330	0.882269
	H48	H	0.410616	0.111241	0.574403
	H49	H	0.587200	0.885841	0.575172
	H50	H	0.592929	0.114012	0.396007
	H51	H	0.410957	0.887151	0.401635
	H52	H	0.590527	0.412100	0.099355
	H53	H	0.588564	0.586322	0.875202
	H54	H	0.408372	0.584645	0.097365
	H55	H	0.404068	0.408133	0.872008
	H56	H	0.110329	0.586461	0.401600
	H57	H	0.885379	0.589101	0.579571
	H58	H	0.110293	0.412647	0.577010
	H59	H	0.883443	0.408699	0.391280
	H60	H	0.111936	0.409994	0.579087
	H61	H	0.888678	0.588217	0.571506
	H62	H	0.112996	0.585231	0.394579
	H63	H	0.884773	0.405504	0.400436
	H64	H	0.412031	0.586384	0.096308
	H65	H	0.586158	0.590221	0.874113
	H66	H	0.585122	0.409364	0.097893
	H67	H	0.407598	0.416328	0.874962
	H68	H	0.585924	0.113563	0.391864
	H69	H	0.585760	0.885647	0.577057
	H70	H	0.411887	0.110099	0.573396
	H71	H	0.409502	0.885305	0.397409
	H72	H	0.907982	0.613475	0.075765
	H73	H	0.085707	0.388126	0.074399
	H74	H	0.086123	0.610429	0.904680
	H75	H	0.908232	0.384724	0.897676
	H76	H	0.084071	0.907375	0.598869
	H77	H	0.084411	0.083826	0.378120
	H78	H	0.907797	0.089684	0.600213
	H79	H	0.907968	0.906322	0.373315
	H80	H	0.610310	0.082102	0.889762
	H81	H	0.385834	0.089805	0.074830
	H82	H	0.609537	0.905357	0.072453
	H83	H	0.384435	0.914106	0.895335
	H84	H	0.606104	0.915217	0.072267
	H85	H	0.386212	0.086103	0.074192
	H86	H	0.614873	0.096997	0.890344
	H87	H	0.384259	0.909024	0.897941
	H88	H	0.904909	0.088221	0.599884
	H89	H	0.085895	0.093054	0.374309
	H90	H	0.090354	0.914956	0.598295
	H91	H	0.905754	0.909131	0.372625
	H92	H	0.088436	0.613905	0.896060
	H93	H	0.089983	0.386114	0.077272
	H94	H	0.908800	0.614388	0.079587
	H95	H	0.910789	0.386532	0.898072
	H96	H	0.410428	0.110054	0.572981
	H97	H	0.584490	0.886228	0.574767
	H98	H	0.585890	0.110558	0.399294
	H99	H	0.413829	0.886678	0.397630
	H100	H	0.589308	0.406186	0.100721
	H101	H	0.590339	0.589883	0.872801
	H102	H	0.409165	0.588395	0.098246
	H103	H	0.413220	0.409109	0.875020
	H104	H	0.113750	0.592062	0.398028
	H105	H	0.889398	0.581834	0.576487
	H106	H	0.111291	0.409088	0.575376
	H107	H	0.887560	0.414751	0.397857
	H108	H	0.911738	0.612858	0.077211
	H109	H	0.085265	0.387121	0.079541
	H110	H	0.079775	0.610740	0.897614
	H111	H	0.908712	0.386194	0.900580
	H112	H	0.081305	0.916016	0.595141
	H113	H	0.093123	0.086480	0.374725
	H114	H	0.907439	0.086829	0.598725
	H115	H	0.908683	0.909542	0.374654
	H116	H	0.608005	0.089962	0.903165
	H117	H	0.384683	0.087054	0.077267
	H118	H	0.610825	0.911539	0.081098
	H119	H	0.386271	0.913690	0.900834
	C120	C	0.376359	0.007132	0.607985
	C121	C	0.618309	0.990507	0.606955
	C122	C	0.619358	0.007354	0.364333
	C123	C	0.378055	0.990551	0.366320
	C124	C	0.620166	0.378163	-0.004984
	C125	C	0.619617	0.621012	0.978261
	C126	C	0.376204	0.620950	-0.005425
	C127	C	0.376427	0.378011	0.977781
	C128	C	0.008215	0.620226	0.366638
	C129	C	0.991049	0.620210	0.609082
	C130	C	0.006939	0.377783	0.608797
	C131	C	0.989874	0.377801	0.365499
	C132	C	0.877330	0.508708	0.109203
	C133	C	0.120170	0.491494	0.109143
	C134	C	0.118345	0.507534	0.866918
	C135	C	0.877668	0.490569	0.866602
	C136	C	0.119392	0.878147	0.494663
	C137	C	0.120408	0.120705	0.479070
	C138	C	0.875924	0.120330	0.495221
	C139	C	0.875987	0.876578	0.477795
	C140	C	0.506422	0.121342	0.863727
	C141	C	0.489827	0.119808	0.106824
	C142	C	0.505216	0.877231	0.108272
	C143	C	0.489116	0.879719	0.866084
	C144	C	0.371750	0.889087	0.670286
	C145	C	0.621697	0.109653	0.666883
	C146	C	0.620503	0.888123	0.304798
	C147	C	0.374844	0.109621	0.305750
	C148	C	0.679885	0.377341	0.876566
	C149	C	0.679063	0.623713	0.096440
	C150	C	0.314049	0.625289	0.877254
	C151	C	0.316651	0.374864	0.096032
	C152	C	0.888458	0.678786	0.366034
	C153	C	0.108574	0.682615	0.612446
	C154	C	0.887506	0.318852	0.609133
	C155	C	0.109117	0.319076	0.365591
	C156	C	0.888255	0.375132	0.668532
	C157	C	0.108429	0.625313	0.671063
	C158	C	0.889240	0.622316	0.307300
	C159	C	0.108691	0.375668	0.306516
	C160	C	0.372723	0.682285	0.876646
	C161	C	0.620169	0.680692	0.096480
	C162	C	0.621314	0.319979	0.875827
	C163	C	0.375775	0.318049	0.096254
	C164	C	0.677776	0.887398	0.362868
	C165	C	0.678548	0.109603	0.608249
	C166	C	0.314331	0.888879	0.612498
	C167	C	0.317238	0.109288	0.363687
	C168	C	0.875472	0.389199	0.168714
	C169	C	0.123163	0.610376	0.169303
	C170	C	0.121612	0.388653	0.806548
	C171	C	0.874089	0.608932	0.804664
	C172	C	0.181589	0.873363	0.377895
	C173	C	0.181826	0.124386	0.596211
	C174	C	0.817727	0.122173	0.376555
	C175	C	0.816947	0.875835	0.596599
	C176	C	0.387299	0.180769	0.863251
	C177	C	0.608998	0.179173	0.107670
	C178	C	0.386904	0.816391	0.111083
	C179	C	0.608070	0.820154	0.864495
	C180	C	0.387414	0.873746	0.169501
	C181	C	0.607871	0.122986	0.167182
	C182	C	0.387463	0.123763	0.804458
	C183	C	0.607821	0.877450	0.806035
	C184	C	0.876553	0.179262	0.376242
	C185	C	0.123020	0.181679	0.596853
	C186	C	0.122930	0.816488	0.377415
	C187	C	0.875511	0.818436	0.597166
	C188	C	0.178933	0.388634	0.864500
	C189	C	0.180632	0.610360	0.111068
	C190	C	0.817523	0.389338	0.111123
	C191	C	0.817878	0.609871	0.863969
	C192	C	0.403223	0.089068	0.581251
	C193	C	0.592850	0.907580	0.582615
	C194	C	0.595193	0.091069	0.388739
	C195	C	0.403825	0.907905	0.391864
	C196	C	0.595579	0.402305	0.077762
	C197	C	0.595379	0.596052	0.895667
	C198	C	0.402408	0.594235	0.075891
	C199	C	0.401104	0.403811	0.895481
	C200	C	0.090803	0.595204	0.391079
	C201	C	0.909233	0.593795	0.583401
	C202	C	0.089582	0.403087	0.584354
	C203	C	0.906965	0.402474	0.389767
	C204	C	0.902397	0.591890	0.084587
	C205	C	0.094473	0.408618	0.084274
	C206	C	0.092413	0.590230	0.892343
	C207	C	0.902255	0.407505	0.891528
	C208	C	0.092819	0.905170	0.576144
	C209	C	0.094974	0.094982	0.397080
	C210	C	0.899811	0.095504	0.578111
	C211	C	0.900361	0.901268	0.395176
	C212	C	0.589390	0.096763	0.887528
	C213	C	0.407192	0.094750	0.082517
	C214	C	0.587390	0.903400	0.082552
	C215	C	0.406361	0.905012	0.890765
	Zn216	Zn	0.497297	-0.000363	0.735610
	Zn217	Zn	0.497632	-0.000851	0.236718
	Zn218	Zn	0.748898	0.499888	-0.012335
	Zn219	Zn	0.247627	0.499568	-0.013127
	Zn220	Zn	-0.001036	0.748851	0.487217
	Zn221	Zn	-0.001964	0.248866	0.487224
	Zn222	Zn	-0.001327	0.498937	0.737899
	Zn223	Zn	-0.001109	0.499748	0.237309
	Zn224	Zn	0.497084	0.749496	-0.013958
	Zn225	Zn	0.498651	0.249513	-0.014231
	Zn226	Zn	0.747478	-0.002075	0.485921
	Zn227	Zn	0.248866	-0.001311	0.487030
	N228	N	0.410037	0.963414	0.667370
	N229	N	0.584517	0.034644	0.666094
	N230	N	0.585175	0.963960	0.305526
	N231	N	0.411730	0.034536	0.307069
	N232	N	0.679584	0.412359	0.951930
	N233	N	0.678891	0.587373	0.021683
	N234	N	0.315878	0.587889	0.951555
	N235	N	0.316817	0.411387	0.021300
	N236	N	0.963506	0.677900	0.401928
	N237	N	0.034619	0.679726	0.574746
	N238	N	0.962357	0.320190	0.572907
	N239	N	0.034097	0.320156	0.401487
	N240	N	0.963687	0.410847	0.668640
	N241	N	0.034474	0.587030	0.668922
	N242	N	0.964698	0.586830	0.307293
	N243	N	0.033478	0.411202	0.306143
	N244	N	0.410517	0.679715	0.950558
	N245	N	0.584121	0.679343	0.021904
	N246	N	0.584873	0.320402	0.950424
	N247	N	0.412050	0.319825	0.021634
	N248	N	0.677279	0.962732	0.398973
	N249	N	0.676439	0.034722	0.571423
	N250	N	0.317359	0.963273	0.574324
	N251	N	0.319412	0.034450	0.400827
	N252	N	0.912079	0.464455	0.167510
	N253	N	0.086456	0.535095	0.168375
	N254	N	0.084901	0.463659	0.807760
	N255	N	0.910353	0.533703	0.806098
	N256	N	0.179519	0.911004	0.451873
	N257	N	0.180267	0.087361	0.521952
	N258	N	0.816990	0.086379	0.451650
	N259	N	0.817020	0.911030	0.521194
	N260	N	0.462339	0.179688	0.899111
	N261	N	0.534485	0.177483	0.070757
	N262	N	0.461326	0.818313	0.073740
	N263	N	0.533225	0.821353	0.900901
	N264	N	0.462030	0.910879	0.167950
	N265	N	0.532764	0.086836	0.166810
	N266	N	0.462642	0.088051	0.804363
	N267	N	0.532611	0.913411	0.806691
	N268	N	0.911943	0.178347	0.451250
	N269	N	0.085475	0.179592	0.522861
	N270	N	0.084781	0.819543	0.451224
	N271	N	0.911465	0.818769	0.522354
	N272	N	0.177107	0.463754	0.901094
	N273	N	0.179041	0.535321	0.074763
	N274	N	0.818311	0.464741	0.075200
	N275	N	0.819793	0.535199	0.901725
	O276	O	0.633379	0.286963	0.494449
	H277	H	0.620711	0.296430	0.495387
	H278	H	0.626969	0.273770	0.500714
	O279	O	0.562676	0.583438	0.350416
	H280	H	0.555530	0.581279	0.353006
	H281	H	0.581187	0.579322	0.339518
	O282	O	0.890769	1.210003	-0.227705
	H283	H	0.854315	1.221994	-0.241004
	H284	H	0.888162	1.204337	-0.237155
	O285	O	0.803597	0.013895	0.795153
	H286	H	0.793586	0.002318	0.813935
	H287	H	0.832754	-0.000031	0.791529
	O288	O	-0.128478	0.117811	-0.035388
	H289	H	-0.120777	0.114688	-0.049648
	H290	H	-0.148497	0.134397	-0.028410
	O291	O	1.146010	1.174170	-0.124388
	H292	H	1.154045	1.179667	-0.099602
	H293	H	1.128150	1.168460	-0.121183
	O294	O	0.527749	0.722780	-0.291661
	H295	H	0.531913	0.726059	-0.298120
	H296	H	0.541144	0.747816	-0.270655
	O297	O	0.311775	0.309939	0.670815
	H298	H	0.297822	0.330670	0.660023
	H299	H	0.296205	0.313344	0.677229
	O300	O	0.398145	0.644558	0.526081
	H301	H	0.400469	0.637244	0.516292
	H302	H	0.407298	0.638316	0.530857
	O303	O	-0.007508	0.042530	1.193941
	H304	H	0.007709	0.048253	1.193854
	H305	H	-0.009796	0.053646	1.186136
	O306	O	-0.217555	0.971533	1.200538
	H307	H	-0.237230	0.970290	1.207392
	H308	H	-0.220764	0.978351	1.200558
	O309	O	1.177831	0.837140	0.794618
	H310	H	1.193165	0.865518	0.800324
	H311	H	1.187284	0.850607	0.820728
	O312	O	0.657995	0.679350	0.322857
	H313	H	0.650779	0.662397	0.332869
	H314	H	0.639006	0.676293	0.323382
	O315	O	-0.201199	-0.022782	1.060446
	H316	H	-0.198526	-0.035157	1.045732
	H317	H	-0.213856	-0.025589	1.083300
	O318	O	-0.387023	0.300247	0.287913
	H319	H	-0.390600	0.293119	0.302661
	H320	H	-0.410522	0.301905	0.283355
	O321	O	0.483099	0.467885	0.351207
	H322	H	0.482279	0.464815	0.357045
	H323	H	0.479953	0.472931	0.348858
	O324	O	1.075383	0.091838	0.786553
	H325	H	1.044736	0.115002	0.774202
	H326	H	1.063910	0.092361	0.809958
	O327	O	1.652731	0.647106	0.637978
	H328	H	1.678418	0.669151	0.652238
	H329	H	1.636383	0.633698	0.645359
	O330	O	1.180618	0.213190	0.048094
	H331	H	1.172688	0.218414	0.074752
	H332	H	1.197480	0.225928	0.054077
	O333	O	1.032324	1.156485	1.064842
	H334	H	1.013626	1.161327	1.074958
	H335	H	1.017262	1.143966	1.058922
	O336	O	1.095531	-0.091980	1.066766
	H337	H	1.081157	-0.094940	1.078581
	H338	H	1.094745	-0.087550	1.075810
	O339	O	0.315466	0.684948	0.301487
	H340	H	0.315235	0.696597	0.324172
	H341	H	0.329426	0.666917	0.304962
	O342	O	0.703026	0.419930	0.468183
	H343	H	0.679409	0.428815	0.474172
	H344	H	0.722646	0.397930	0.461517
	O345	O	-0.012385	-0.212915	0.056453
	H346	H	-0.028811	-0.216131	0.057176
	H347	H	-0.011407	-0.222544	0.069414
	O348	O	1.001898	-0.164834	0.777207
	H349	H	1.016158	-0.192185	0.755242
	H350	H	1.032956	-0.157013	0.794323
	O351	O	1.201316	1.195475	0.183894
	H352	H	1.173584	1.180606	0.196039
	H353	H	1.196152	1.203158	0.191046
	O354	O	0.580835	0.378315	0.585676
	H355	H	0.576540	0.379011	0.587243
	H356	H	0.578193	0.390259	0.600294
	O357	O	0.954056	0.927093	0.906266
	H358	H	0.959844	0.912195	0.890712
	H359	H	0.976258	0.940136	0.900718
	O360	O	0.327189	0.353551	0.319747
	H361	H	0.323522	0.359516	0.317255
	H362	H	0.333487	0.358829	0.338578
	O363	O	0.197770	0.995115	-0.200792
	H364	H	0.201943	1.007797	-0.226874
	H365	H	0.190746	1.015908	-0.178083
	O366	O	0.993593	-0.171411	0.949585
	H367	H	0.990387	-0.169717	0.961492
	H368	H	0.994912	-0.182668	0.947323
	O369	O	0.400319	0.522875	0.645288
	H370	H	0.413985	0.514071	0.639034
	H371	H	0.415186	0.533088	0.641094
	O372	O	0.312604	0.494560	0.267800
	H373	H	0.306194	0.493312	0.259159
	H374	H	0.300803	0.516343	0.264208
	O375	O	1.203037	0.834113	-0.031433
	H376	H	1.198345	0.857068	-0.023838
	H377	H	1.223089	0.811869	-0.021826
	O378	O	0.296015	0.702257	0.458565
	H379	H	0.302571	0.714630	0.462589
	H380	H	0.285296	0.702400	0.464694
	O381	O	1.095031	-0.034161	-0.047560
	H382	H	1.103585	-0.015776	-0.044769
	H383	H	1.092418	-0.042100	-0.069450
	O384	O	0.012685	-0.035971	1.075064
	H385	H	0.013912	-0.031251	1.082292
	H386	H	0.038224	-0.045511	1.080712
	O387	O	-0.188064	0.946927	1.132448
	H388	H	-0.194332	0.939050	1.133208
	H389	H	-0.176811	0.953214	1.124679
	O390	O	0.034610	0.171198	1.198459
	H391	H	0.026537	0.184172	1.203450
	H392	H	0.020916	0.168336	1.186265
	O393	O	0.939998	0.854496	-0.040339
	H394	H	0.954083	0.835458	-0.027560
	H395	H	0.943054	0.861733	-0.032068
	O396	O	0.693878	0.365635	0.634402
	H397	H	0.694305	0.390692	0.622661
	H398	H	0.679832	0.366243	0.623323
	O399	O	0.294442	0.404827	0.620120
	H400	H	0.278945	0.400732	0.641645
	H401	H	0.306634	0.414465	0.614094
	O402	O	-0.197842	0.262240	1.175324
	H403	H	-0.223814	0.257774	1.178779
	H404	H	-0.214699	0.274099	1.187667
	O405	O	-0.065630	-0.193198	0.156121
	H406	H	-0.079123	-0.161417	0.173595
	H407	H	-0.081527	-0.188222	0.131086
	O408	O	0.700310	0.471054	0.281417
	H409	H	0.703355	0.457053	0.275383
	H410	H	0.702958	0.461799	0.279354
	O411	O	0.472102	0.279345	0.704671
	H412	H	0.428063	0.289146	0.696643
	H413	H	0.461784	0.250512	0.736765
	O414	O	0.498325	0.703933	0.315296
	H415	H	0.490499	0.696096	0.334418
	H416	H	0.500068	0.709185	0.294920
	O417	O	0.444407	0.320539	0.441096
	H418	H	0.451799	0.320147	0.454337
	H419	H	0.439557	0.321968	0.446328
	O420	O	0.492217	0.603602	0.464081
	H421	H	0.493703	0.613597	0.474178
	H422	H	0.494157	0.597771	0.466901
	O423	O	-0.224027	0.850651	-0.011886
	H424	H	-0.221896	0.834322	0.006861
	H425	H	-0.242263	0.831494	-0.011423
	O426	O	0.583291	1.591293	1.461259
	H427	H	0.576069	1.587993	1.442603
	H428	H	0.602126	1.604617	1.453899
	O429	O	-0.041288	-0.789278	0.900522
	H430	H	-0.048012	-0.778972	0.903394
	H431	H	-0.065538	-0.791195	0.894261
	O432	O	0.710599	0.672101	0.494365
	H433	H	0.701623	0.657326	0.513019
	H434	H	0.732980	0.698678	0.498905
	O435	O	0.105704	-0.013340	0.087973
	H436	H	0.106634	-0.008119	0.100794
	H437	H	0.105185	-0.011369	0.081175
	O438	O	0.823226	0.168462	-0.052118
	H439	H	0.821983	0.176077	-0.070560
	H440	H	0.822098	0.181867	-0.060238
	O441	O	0.469227	0.503594	0.681148
	H442	H	0.468220	0.496750	0.679960
	H443	H	0.484321	0.502029	0.685157
	O444	O	-0.232489	0.772056	0.758485
	H445	H	-0.221867	0.770839	0.772430
	H446	H	-0.208040	0.786238	0.747842
	O447	O	1.214914	1.017563	1.182681
	H448	H	1.230362	1.027256	1.199625
	H449	H	1.222894	1.013417	1.169387
	O450	O	0.533894	0.398316	0.376616
	H451	H	0.532611	0.407210	0.385477
	H452	H	0.525034	0.387236	0.382760
	O453	O	0.401447	0.501022	0.487308
	H454	H	0.400173	0.487698	0.478096
	H455	H	0.399045	0.514748	0.495687
	O456	O	0.349998	0.523666	0.515365
	H457	H	0.342998	0.540290	0.518881
	H458	H	0.347205	0.529671	0.519783
	O459	O	0.708513	0.526646	0.695138
	H460	H	0.721474	0.528113	0.701010
	H461	H	0.709810	0.527934	0.688256
	O462	O	0.293149	1.390589	1.532232
	H463	H	0.295676	1.391492	1.539609
	H464	H	0.286237	1.393878	1.538089
	O465	O	0.920199	0.023532	-0.085160
	H466	H	0.920805	0.013592	-0.074144
	H467	H	0.907503	0.007893	-0.085010
