data_Molecule from HDF5

_cell_length_a		16.280583
_cell_length_b		16.185796
_cell_length_c		16.227282
_cell_angle_alpha	90.049424
_cell_angle_beta	89.963184
_cell_angle_gamma	89.965799
_symmetry_space_group_name_H-M	'P 1'
_symmetry_Int_Tables_number		1

loop_
	_symmetry_equiv_pos_as_xyz
	x,y,z

loop_
	_atom_site_label
	_atom_site_type_symbol
	_atom_site_fract_x
	_atom_site_fract_y
	_atom_site_fract_z
	H0	H	0.403503	0.842039	0.711483
	H1	H	0.601550	0.170822	0.711502
	H2	H	0.599692	0.842116	0.282283
	H3	H	0.402358	0.171711	0.281939
	H4	H	0.720205	0.405132	0.832711
	H5	H	0.721279	0.606630	0.159550
	H6	H	0.289053	0.608586	0.831671
	H7	H	0.287397	0.407617	0.157916
	H8	H	0.840275	0.720916	0.395176
	H9	H	0.167379	0.721016	0.592541
	H10	H	0.840370	0.293097	0.592092
	H11	H	0.166742	0.290000	0.393646
	H12	H	0.842616	0.403993	0.711378
	H13	H	0.168808	0.604674	0.707851
	H14	H	0.841167	0.606285	0.279208
	H15	H	0.168187	0.408004	0.280521
	H16	H	0.406352	0.719164	0.831400
	H17	H	0.602409	0.721405	0.160549
	H18	H	0.604352	0.290004	0.833167
	H19	H	0.405559	0.295294	0.160973
	H20	H	0.717862	0.842459	0.396014
	H21	H	0.717983	0.170500	0.597021
	H22	H	0.287833	0.841573	0.595444
	H23	H	0.287394	0.170741	0.397927
	H24	H	0.904004	0.342373	0.211514
	H25	H	0.104087	0.670624	0.210846
	H26	H	0.106355	0.343611	0.778973
	H27	H	0.906434	0.670940	0.780656
	H28	H	0.220601	0.904150	0.332958
	H29	H	0.215851	0.104587	0.659633
	H30	H	0.785484	0.107795	0.332827
	H31	H	0.788459	0.906928	0.660305
	H32	H	0.340112	0.223257	0.898540
	H33	H	0.665892	0.222544	0.097678
	H34	H	0.339032	0.791508	0.094301
	H35	H	0.666201	0.791214	0.895869
	H36	H	0.339304	0.905889	0.211976
	H37	H	0.665401	0.107353	0.212714
	H38	H	0.339502	0.107518	0.782067
	H39	H	0.665606	0.905209	0.779545
	H40	H	0.904200	0.220493	0.330961
	H41	H	0.102971	0.221091	0.658379
	H42	H	0.100942	0.793444	0.330554
	H43	H	0.904143	0.790943	0.659415
	H44	H	0.220040	0.343710	0.894896
	H45	H	0.219604	0.671102	0.094707
	H46	H	0.788003	0.342826	0.097633
	H47	H	0.789205	0.670392	0.895053
	H48	H	0.415840	0.118269	0.579243
	H49	H	0.603305	0.888937	0.581869
	H50	H	0.594244	0.122877	0.405423
	H51	H	0.402709	0.886366	0.399040
	H52	H	0.607861	0.427956	0.112533
	H53	H	0.593803	0.592479	0.882542
	H54	H	0.405748	0.608717	0.116732
	H55	H	0.412503	0.422961	0.880766
	H56	H	0.120821	0.602312	0.405735
	H57	H	0.885312	0.600758	0.593383
	H58	H	0.119224	0.415577	0.582733
	H59	H	0.888565	0.412072	0.406547
	H60	H	0.122113	0.415478	0.591091
	H61	H	0.888501	0.602180	0.582706
	H62	H	0.119464	0.594463	0.401539
	H63	H	0.888346	0.417961	0.400417
	H64	H	0.404415	0.588593	0.111450
	H65	H	0.593954	0.604486	0.879312
	H66	H	0.581606	0.417660	0.107792
	H67	H	0.419606	0.409198	0.878811
	H68	H	0.595136	0.124109	0.404542
	H69	H	0.596845	0.886489	0.597581
	H70	H	0.395495	0.127328	0.588495
	H71	H	0.418437	0.890380	0.398593
	H72	H	0.920370	0.620684	0.088445
	H73	H	0.090374	0.392836	0.083988
	H74	H	0.098115	0.626605	0.897262
	H75	H	0.912098	0.389266	0.902464
	H76	H	0.093920	0.906235	0.614252
	H77	H	0.090963	0.094447	0.379737
	H78	H	0.911604	0.103794	0.612799
	H79	H	0.915270	0.923070	0.383000
	H80	H	0.622011	0.106717	0.904445
	H81	H	0.386333	0.094635	0.095684
	H82	H	0.618356	0.915341	0.087144
	H83	H	0.385676	0.917042	0.897790
	H84	H	0.619230	0.915979	0.090923
	H85	H	0.383392	0.107920	0.091670
	H86	H	0.614907	0.093290	0.912919
	H87	H	0.384657	0.906011	0.902552
	H88	H	0.907373	0.096120	0.612514
	H89	H	0.096436	0.102781	0.376340
	H90	H	0.102041	0.914629	0.614100
	H91	H	0.914588	0.905193	0.377211
	H92	H	0.093355	0.623063	0.901829
	H93	H	0.101780	0.390413	0.081145
	H94	H	0.910850	0.621302	0.079166
	H95	H	0.913897	0.388957	0.901063
	H96	H	0.414784	0.125528	0.601510
	H97	H	0.587010	0.893042	0.585029
	H98	H	0.594081	0.124063	0.404341
	H99	H	0.410375	0.892333	0.413221
	H100	H	0.601608	0.400982	0.119592
	H101	H	0.604128	0.597507	0.878063
	H102	H	0.422171	0.598671	0.109174
	H103	H	0.404959	0.411077	0.875370
	H104	H	0.122526	0.601875	0.396498
	H105	H	0.889170	0.592385	0.586952
	H106	H	0.122124	0.408659	0.586090
	H107	H	0.885954	0.410284	0.398695
	H108	H	0.907569	0.625220	0.091355
	H109	H	0.099106	0.387622	0.091817
	H110	H	0.100157	0.625664	0.903866
	H111	H	0.914705	0.390041	0.903612
	H112	H	0.090799	0.917738	0.609800
	H113	H	0.101416	0.093222	0.377821
	H114	H	0.915039	0.096420	0.610030
	H115	H	0.899610	0.915738	0.376560
	H116	H	0.619370	0.092113	0.897245
	H117	H	0.389425	0.099298	0.082353
	H118	H	0.619265	0.912836	0.088740
	H119	H	0.388648	0.915559	0.910118
	C120	C	0.380597	0.014897	0.618451
	C121	C	0.624250	0.998158	0.617956
	C122	C	0.623849	0.015427	0.375012
	C123	C	0.381050	0.997991	0.374915
	C124	C	0.626132	0.384917	0.005106
	C125	C	0.626392	0.628053	0.987851
	C126	C	0.382462	0.627886	0.004025
	C127	C	0.382984	0.386007	0.987010
	C128	C	0.012804	0.628686	0.372223
	C129	C	0.995907	0.627592	0.616113
	C130	C	0.013450	0.383945	0.616222
	C131	C	0.995533	0.384363	0.372154
	C132	C	0.883301	0.514505	0.116605
	C133	C	0.125897	0.498596	0.115448
	C134	C	0.126832	0.516512	0.872334
	C135	C	0.883649	0.497815	0.873193
	C136	C	0.124732	0.884006	0.504380
	C137	C	0.124887	0.126832	0.486363
	C138	C	0.881693	0.128092	0.503868
	C139	C	0.880944	0.884854	0.486994
	C140	C	0.510977	0.127846	0.875758
	C141	C	0.494244	0.129203	0.119094
	C142	C	0.510881	0.884964	0.117703
	C143	C	0.494169	0.883851	0.873956
	C144	C	0.383168	0.891030	0.673665
	C145	C	0.621873	0.121689	0.673615
	C146	C	0.621056	0.891539	0.319432
	C147	C	0.382480	0.122072	0.319679
	C148	C	0.682067	0.385407	0.881615
	C149	C	0.682313	0.626515	0.110965
	C150	C	0.326811	0.627713	0.880887
	C151	C	0.325969	0.387763	0.109676
	C152	C	0.889448	0.683393	0.374714
	C153	C	0.118781	0.683283	0.613425
	C154	C	0.889776	0.329850	0.613060
	C155	C	0.118248	0.328387	0.373496
	C156	C	0.890883	0.385213	0.672479
	C157	C	0.119471	0.625191	0.670673
	C158	C	0.889890	0.626435	0.317073
	C159	C	0.118645	0.386602	0.317013
	C160	C	0.385199	0.682698	0.880512
	C161	C	0.623202	0.683433	0.111441
	C162	C	0.624380	0.328096	0.881988
	C163	C	0.384936	0.331862	0.111115
	C164	C	0.679583	0.891641	0.376277
	C165	C	0.679703	0.121695	0.616479
	C166	C	0.325473	0.890870	0.616210
	C167	C	0.325113	0.121707	0.377196
	C168	C	0.884275	0.391319	0.173335
	C169	C	0.124025	0.621779	0.172345
	C170	C	0.125813	0.392559	0.817353
	C171	C	0.885697	0.621456	0.817921
	C172	C	0.181226	0.885266	0.381269
	C173	C	0.178793	0.124898	0.610267
	C174	C	0.824722	0.126643	0.381144
	C175	C	0.826042	0.886346	0.610945
	C176	C	0.388635	0.184893	0.878131
	C177	C	0.616935	0.184686	0.117854
	C178	C	0.387960	0.829298	0.115128
	C179	C	0.617343	0.828847	0.875744
	C180	C	0.388063	0.886260	0.173400
	C181	C	0.616779	0.127050	0.174820
	C182	C	0.388346	0.127317	0.820029
	C183	C	0.616901	0.885574	0.817663
	C184	C	0.883808	0.182648	0.380131
	C185	C	0.122911	0.183096	0.609496
	C186	C	0.121896	0.829867	0.380206
	C187	C	0.883405	0.828722	0.610439
	C188	C	0.182840	0.392997	0.874441
	C189	C	0.181433	0.622239	0.114599
	C190	C	0.826588	0.391482	0.116506
	C191	C	0.827428	0.621167	0.875052
	C192	C	0.402432	0.101242	0.596275
	C193	C	0.602170	0.911946	0.594958
	C194	C	0.601235	0.101319	0.398218
	C195	C	0.403767	0.912058	0.397034
	C196	C	0.603796	0.408562	0.091031
	C197	C	0.603845	0.605030	0.902062
	C198	C	0.404493	0.605265	0.090207
	C199	C	0.406003	0.407974	0.900781
	C200	C	0.098781	0.606146	0.394633
	C201	C	0.909955	0.604888	0.594182
	C202	C	0.098970	0.406536	0.593379
	C203	C	0.909774	0.406875	0.395059
	C204	C	0.906327	0.600234	0.093093
	C205	C	0.103554	0.412674	0.092528
	C206	C	0.103893	0.602878	0.894358
	C207	C	0.906677	0.411681	0.895717
	C208	C	0.102325	0.906302	0.590504
	C209	C	0.102793	0.103684	0.400251
	C210	C	0.904448	0.105491	0.589520
	C211	C	0.903278	0.907813	0.401334
	C212	C	0.596479	0.104330	0.898318
	C213	C	0.408394	0.107142	0.096486
	C214	C	0.596637	0.907784	0.095378
	C215	C	0.408551	0.906178	0.896796
	Zn216	Zn	0.502374	0.006368	0.746492
	Zn217	Zn	0.502229	0.007361	0.246165
	Zn218	Zn	0.755472	0.505609	-0.004461
	Zn219	Zn	0.254452	0.507600	-0.005989
	Zn220	Zn	0.003274	0.756167	0.494429
	Zn221	Zn	0.004282	0.255821	0.494134
	Zn222	Zn	0.005279	0.505987	0.744679
	Zn223	Zn	0.004364	0.506196	0.244478
	Zn224	Zn	0.502756	0.756124	-0.004237
	Zn225	Zn	0.503823	0.257163	-0.002947
	Zn226	Zn	0.752862	0.006523	0.496854
	Zn227	Zn	0.252557	0.005842	0.496175
	N228	N	0.416507	0.969044	0.675251
	N229	N	0.588112	0.043832	0.674493
	N230	N	0.587339	0.969419	0.318376
	N231	N	0.416685	0.044275	0.318014
	N232	N	0.683048	0.420086	0.958960
	N233	N	0.684627	0.592929	0.033073
	N234	N	0.324988	0.594491	0.958675
	N235	N	0.324647	0.420796	0.031487
	N236	N	0.967198	0.685098	0.408081
	N237	N	0.041024	0.684806	0.580267
	N238	N	0.966976	0.328919	0.578770
	N239	N	0.040619	0.326696	0.406855
	N240	N	0.968764	0.418196	0.674643
	N241	N	0.041985	0.591273	0.672388
	N242	N	0.967578	0.593359	0.315360
	N243	N	0.041267	0.420599	0.316075
	N244	N	0.419380	0.682961	0.958152
	N245	N	0.589315	0.684577	0.033792
	N246	N	0.590349	0.327612	0.959742
	N247	N	0.419277	0.330264	0.033703
	N248	N	0.681592	0.969631	0.410074
	N249	N	0.681376	0.043742	0.582687
	N250	N	0.323739	0.968870	0.582522
	N251	N	0.324170	0.043795	0.411018
	N252	N	0.919121	0.468696	0.173356
	N253	N	0.090242	0.543935	0.173051
	N254	N	0.091555	0.470279	0.815963
	N255	N	0.919825	0.543643	0.816521
	N256	N	0.183284	0.918146	0.459515
	N257	N	0.180129	0.090608	0.532682
	N258	N	0.823133	0.093518	0.459195
	N259	N	0.823956	0.920291	0.533306
	N260	N	0.465932	0.185103	0.912039
	N261	N	0.539718	0.186168	0.083760
	N262	N	0.465475	0.828322	0.081158
	N263	N	0.540027	0.827561	0.909910
	N264	N	0.465492	0.920024	0.175258
	N265	N	0.539251	0.093285	0.175453
	N266	N	0.465433	0.092541	0.818564
	N267	N	0.539280	0.919154	0.816500
	N268	N	0.918575	0.183808	0.457343
	N269	N	0.089835	0.184307	0.531358
	N270	N	0.087455	0.829038	0.457592
	N271	N	0.916648	0.827261	0.532326
	N272	N	0.183481	0.471026	0.908092
	N273	N	0.182610	0.544789	0.079869
	N274	N	0.826109	0.468992	0.081717
	N275	N	0.825919	0.543128	0.908550
	O276	O	0.581328	0.601851	0.632311
	H277	H	0.568254	0.602715	0.629078
	H278	H	0.594895	0.585913	0.637606
	O279	O	1.000476	-0.054491	0.985528
	H280	H	0.984153	-0.061180	0.985643
	H281	H	0.992444	-0.035068	0.989357
	O282	O	1.095500	0.967257	-0.165828
	H283	H	1.105316	0.951831	-0.169755
	H284	H	1.094640	0.948422	-0.166452
	O285	O	0.971570	-0.108090	1.149513
	H286	H	0.970446	-0.102699	1.146546
	H287	H	0.977093	-0.114324	1.159536
	O288	O	0.440582	0.612535	0.535080
	H289	H	0.450195	0.603500	0.538087
	H290	H	0.445053	0.618397	0.526509
	O291	O	0.494624	0.495442	0.541321
	H292	H	0.508051	0.494296	0.541193
	H293	H	0.501514	0.505293	0.538040
	O294	O	0.505264	0.483897	0.521376
	H295	H	0.501000	0.474585	0.511170
	H296	H	0.510029	0.480568	0.527856
	O297	O	-0.015700	-0.029780	0.975297
	H298	H	-0.029333	-0.044981	0.994196
	H299	H	-0.017189	-0.027713	0.962106
	O300	O	0.503279	0.535148	0.476106
	H301	H	0.496109	0.542417	0.472230
	H302	H	0.504262	0.539326	0.478163
	O303	O	0.491438	0.545582	0.404192
	H304	H	0.495803	0.535809	0.416803
	H305	H	0.473747	0.553554	0.403917
	O306	O	0.071637	1.005270	0.903950
	H307	H	0.081991	0.995228	0.893598
	H308	H	0.079362	1.004281	0.908800
	O309	O	0.624337	0.518640	0.484179
	H310	H	0.620472	0.517055	0.489208
	H311	H	0.626750	0.515292	0.486559
	O312	O	0.134598	0.065719	0.059446
	H313	H	0.138672	0.066396	0.059792
	H314	H	0.137299	0.063081	0.046956
	O315	O	1.041622	0.015554	0.088536
	H316	H	1.058065	0.027037	0.101383
	H317	H	1.033830	0.024804	0.108761
	O318	O	0.993397	1.063898	0.951722
	H319	H	0.998588	1.068314	0.956102
	H320	H	1.001121	1.069174	0.946148
	O321	O	-0.097401	-0.033894	1.116223
	H322	H	-0.116502	-0.038161	1.135773
	H323	H	-0.098418	-0.043821	1.118990
	O324	O	0.445784	0.568328	0.398249
	H325	H	0.437755	0.568978	0.396276
	H326	H	0.435718	0.578196	0.400009
	O327	O	-0.026291	0.118313	0.057891
	H328	H	-0.022973	0.119968	0.065953
	H329	H	-0.010909	0.124145	0.050505
	O330	O	0.426449	0.460466	0.577949
	H331	H	0.429885	0.448618	0.567626
	H332	H	0.433441	0.469521	0.586297
	O333	O	0.064684	0.966325	1.031740
	H334	H	0.074540	0.958125	1.033545
	H335	H	0.062166	0.964101	1.017752
	O336	O	0.003009	0.059745	-0.042327
	H337	H	-0.000801	0.050807	-0.046069
	H338	H	0.006532	0.067583	-0.042938
	O339	O	0.582069	0.608162	0.550238
	H340	H	0.582988	0.612732	0.537684
	H341	H	0.585029	0.602856	0.565391
	O342	O	0.988016	1.036988	1.005387
	H343	H	0.985073	1.053027	0.999431
	H344	H	0.980447	1.040421	1.001373
	O345	O	0.999664	1.034900	-0.100061
	H346	H	0.987384	1.033346	-0.096759
	H347	H	0.991115	1.021282	-0.107385
	O348	O	0.586582	0.428641	0.574437
	H349	H	0.586704	0.422457	0.576865
	H350	H	0.580691	0.433486	0.571602
	O351	O	0.440423	0.549447	0.450887
	H352	H	0.439286	0.546522	0.456867
	H353	H	0.435715	0.564403	0.451900
	O354	O	-0.057800	0.064910	-0.064933
	H355	H	-0.066229	0.069861	-0.067037
	H356	H	-0.046301	0.071290	-0.057646
	O357	O	0.816395	0.068387	0.853830
	H358	H	0.821874	0.076053	0.868064
	H359	H	0.804481	0.065683	0.848497
	O360	O	0.555923	0.445824	0.485205
	H361	H	0.551918	0.435442	0.499949
	H362	H	0.565769	0.445960	0.494383
	O363	O	0.540069	0.584309	0.468367
	H364	H	0.533803	0.580928	0.458042
	H365	H	0.539905	0.592248	0.466270
	O366	O	0.858341	0.945442	1.087629
	H367	H	0.860232	0.924804	1.106495
	H368	H	0.852715	0.940774	1.105020
	O369	O	1.052899	0.035550	1.030708
	H370	H	1.058308	0.021932	1.018346
	H371	H	1.064930	0.043365	1.027104
	O372	O	0.022259	-0.050352	0.128180
	H373	H	0.027876	-0.049854	0.123295
	H374	H	0.014766	-0.037357	0.134118
	O375	O	0.955545	0.063565	-0.019817
	H376	H	0.952276	0.074684	-0.024701
	H377	H	0.952443	0.050595	-0.028424
	O378	O	0.468002	0.499794	0.524408
	H379	H	0.469031	0.505393	0.517685
	H380	H	0.473174	0.485746	0.521731
	O381	O	0.495836	0.477389	0.432247
	H382	H	0.497734	0.485580	0.429229
	H383	H	0.492123	0.480136	0.440688
