data_Molecule from HDF5

_cell_length_a		16.234228
_cell_length_b		16.281233
_cell_length_c		16.169936
_cell_angle_alpha	89.516456
_cell_angle_beta	89.300835
_cell_angle_gamma	90.332333
_symmetry_space_group_name_H-M	'P 1'
_symmetry_Int_Tables_number		1

loop_
	_symmetry_equiv_pos_as_xyz
	x,y,z

loop_
	_atom_site_label
	_atom_site_type_symbol
	_atom_site_fract_x
	_atom_site_fract_y
	_atom_site_fract_z
	H0	H	0.399754	0.846934	0.717121
	H1	H	0.601926	0.172489	0.708501
	H2	H	0.602940	0.845658	0.281415
	H3	H	0.405776	0.172879	0.281197
	H4	H	0.720657	0.413985	0.832371
	H5	H	0.717415	0.609809	0.161471
	H6	H	0.295421	0.610559	0.831060
	H7	H	0.285550	0.407023	0.159159
	H8	H	0.840561	0.723035	0.395667
	H9	H	0.166388	0.723591	0.593436
	H10	H	0.839828	0.290409	0.600213
	H11	H	0.168024	0.293903	0.396747
	H12	H	0.841061	0.405885	0.716838
	H13	H	0.169300	0.605132	0.705266
	H14	H	0.839056	0.605460	0.284940
	H15	H	0.167279	0.409903	0.280019
	H16	H	0.406189	0.727094	0.833870
	H17	H	0.602729	0.723110	0.161266
	H18	H	0.606796	0.295822	0.833319
	H19	H	0.400388	0.291918	0.160048
	H20	H	0.718233	0.844931	0.397657
	H21	H	0.720367	0.170153	0.595775
	H22	H	0.285598	0.846088	0.601037
	H23	H	0.290060	0.172524	0.397689
	H24	H	0.901423	0.345651	0.214150
	H25	H	0.103443	0.673005	0.210369
	H26	H	0.103744	0.345001	0.783377
	H27	H	0.906817	0.671476	0.779625
	H28	H	0.221928	0.909905	0.333836
	H29	H	0.216305	0.107829	0.661856
	H30	H	0.793247	0.107083	0.333058
	H31	H	0.783482	0.902412	0.660560
	H32	H	0.342039	0.228774	0.895552
	H33	H	0.666063	0.226450	0.096211
	H34	H	0.340787	0.789687	0.102563
	H35	H	0.667939	0.797773	0.896746
	H36	H	0.340551	0.908561	0.215759
	H37	H	0.668555	0.108330	0.206302
	H38	H	0.339877	0.110322	0.783555
	H39	H	0.666218	0.911759	0.780098
	H40	H	0.904091	0.225211	0.334839
	H41	H	0.103109	0.222663	0.660975
	H42	H	0.104199	0.795817	0.331785
	H43	H	0.899668	0.787789	0.660089
	H44	H	0.222313	0.347190	0.894225
	H45	H	0.220072	0.673390	0.092817
	H46	H	0.783687	0.347510	0.101662
	H47	H	0.791965	0.673155	0.895799
	H48	H	0.400362	0.126742	0.583837
	H49	H	0.583754	0.894547	0.591879
	H50	H	0.597124	0.124916	0.401072
	H51	H	0.411210	0.894196	0.410029
	H52	H	0.587866	0.428370	0.108279
	H53	H	0.594182	0.609542	0.878790
	H54	H	0.406465	0.593958	0.113525
	H55	H	0.408642	0.421222	0.877559
	H56	H	0.121131	0.600192	0.399226
	H57	H	0.885215	0.593976	0.597823
	H58	H	0.119857	0.419040	0.592332
	H59	H	0.885512	0.409679	0.405283
	H60	H	0.123476	0.407719	0.590179
	H61	H	0.885279	0.606134	0.587066
	H62	H	0.121538	0.604664	0.402325
	H63	H	0.888685	0.414386	0.412176
	H64	H	0.416911	0.599517	0.112451
	H65	H	0.606674	0.605997	0.876998
	H66	H	0.586531	0.405696	0.115570
	H67	H	0.420179	0.423221	0.882093
	H68	H	0.599367	0.124848	0.405240
	H69	H	0.594503	0.894055	0.580807
	H70	H	0.408645	0.129848	0.599935
	H71	H	0.409310	0.892197	0.405284
	H72	H	0.915860	0.625989	0.096236
	H73	H	0.091776	0.394967	0.090005
	H74	H	0.106661	0.627791	0.899412
	H75	H	0.906628	0.392669	0.913367
	H76	H	0.084804	0.919426	0.610141
	H77	H	0.098874	0.102282	0.379074
	H78	H	0.915535	0.096406	0.613662
	H79	H	0.911572	0.922889	0.381837
	H80	H	0.622591	0.106198	0.900787
	H81	H	0.386215	0.099608	0.093741
	H82	H	0.618785	0.921754	0.089196
	H83	H	0.383316	0.912158	0.901822
	H84	H	0.624029	0.912341	0.093750
	H85	H	0.385459	0.104013	0.088811
	H86	H	0.619723	0.103755	0.907180
	H87	H	0.387939	0.911998	0.917930
	H88	H	0.909444	0.100595	0.616363
	H89	H	0.099214	0.098119	0.380571
	H90	H	0.091186	0.903876	0.616665
	H91	H	0.918659	0.911175	0.381156
	H92	H	0.095996	0.627095	0.894702
	H93	H	0.094838	0.395308	0.084548
	H94	H	0.913847	0.623485	0.083037
	H95	H	0.910027	0.390208	0.901291
	H96	H	0.418025	0.121555	0.586316
	H97	H	0.597633	0.888325	0.594504
	H98	H	0.601974	0.126364	0.400947
	H99	H	0.415861	0.893348	0.405619
	H100	H	0.606038	0.418268	0.117623
	H101	H	0.597657	0.597499	0.882203
	H102	H	0.407536	0.605344	0.116425
	H103	H	0.417024	0.412173	0.877657
	H104	H	0.119345	0.600832	0.404469
	H105	H	0.891153	0.592274	0.582842
	H106	H	0.118751	0.414131	0.581409
	H107	H	0.886584	0.417995	0.403481
	H108	H	0.904014	0.628396	0.091069
	H109	H	0.098185	0.392292	0.089287
	H110	H	0.097476	0.623549	0.905497
	H111	H	0.918234	0.395270	0.909233
	H112	H	0.101750	0.918262	0.616185
	H113	H	0.095928	0.100168	0.380713
	H114	H	0.908538	0.093324	0.614839
	H115	H	0.905544	0.911325	0.377252
	H116	H	0.619230	0.099359	0.901696
	H117	H	0.388129	0.098000	0.086704
	H118	H	0.619354	0.912730	0.082511
	H119	H	0.388883	0.926261	0.908149
	C120	C	0.379653	0.018010	0.620716
	C121	C	0.622889	0.999816	0.617549
	C122	C	0.627135	0.017404	0.373828
	C123	C	0.383254	1.001095	0.376715
	C124	C	0.625110	0.389122	0.005693
	C125	C	0.626948	0.632458	0.988318
	C126	C	0.383621	0.630038	0.005427
	C127	C	0.383215	0.388103	0.987481
	C128	C	0.012308	0.629810	0.374114
	C129	C	0.995480	0.627538	0.616877
	C130	C	0.012477	0.384186	0.619626
	C131	C	0.995130	0.385767	0.376223
	C132	C	0.880768	0.518129	0.120318
	C133	C	0.125176	0.501741	0.116720
	C134	C	0.128497	0.518013	0.872526
	C135	C	0.883996	0.500747	0.877029
	C136	C	0.124232	0.886338	0.505842
	C137	C	0.125753	0.129206	0.488665
	C138	C	0.883212	0.127105	0.506806
	C139	C	0.880707	0.884301	0.488162
	C140	C	0.512773	0.132506	0.874673
	C141	C	0.495033	0.130317	0.117455
	C142	C	0.512664	0.886169	0.119857
	C143	C	0.494647	0.888367	0.877347
	C144	C	0.380104	0.895731	0.678525
	C145	C	0.621700	0.123303	0.671399
	C146	C	0.623658	0.894469	0.318837
	C147	C	0.385795	0.123915	0.319847
	C148	C	0.682594	0.392558	0.881863
	C149	C	0.680306	0.629642	0.112064
	C150	C	0.331138	0.630002	0.881029
	C151	C	0.324454	0.388011	0.110282
	C152	C	0.889309	0.685256	0.376005
	C153	C	0.118250	0.684562	0.613504
	C154	C	0.889289	0.327971	0.620088
	C155	C	0.118788	0.331394	0.376944
	C156	C	0.889702	0.385590	0.677763
	C157	C	0.119444	0.625468	0.669301
	C158	C	0.888461	0.626292	0.321147
	C159	C	0.118526	0.388995	0.318763
	C160	C	0.386619	0.687863	0.882241
	C161	C	0.623025	0.685984	0.112183
	C162	C	0.625995	0.333900	0.882409
	C163	C	0.381882	0.330921	0.110971
	C164	C	0.681081	0.894014	0.376618
	C165	C	0.681015	0.121909	0.615387
	C166	C	0.323318	0.895214	0.620600
	C167	C	0.328184	0.123831	0.377936
	C168	C	0.881536	0.395046	0.176456
	C169	C	0.123902	0.624186	0.172553
	C170	C	0.125215	0.394324	0.819481
	C171	C	0.886899	0.623100	0.818923
	C172	C	0.182571	0.889375	0.382611
	C173	C	0.179627	0.127516	0.612627
	C174	C	0.829846	0.126563	0.382654
	C175	C	0.822434	0.883560	0.611437
	C176	C	0.390270	0.189717	0.876291
	C177	C	0.617790	0.187254	0.115228
	C178	C	0.389778	0.828464	0.121497
	C179	C	0.618221	0.834289	0.877112
	C180	C	0.389455	0.887795	0.177489
	C181	C	0.618868	0.128680	0.170267
	C182	C	0.389168	0.130639	0.820748
	C183	C	0.617492	0.891213	0.819154
	C184	C	0.885034	0.185327	0.383442
	C185	C	0.123393	0.185038	0.612023
	C186	C	0.124146	0.832714	0.381526
	C187	C	0.880220	0.826497	0.611252
	C188	C	0.184144	0.395551	0.874720
	C189	C	0.181608	0.624506	0.113618
	C190	C	0.822955	0.395922	0.120365
	C191	C	0.829831	0.624155	0.876916
	C192	C	0.402415	0.103777	0.597003
	C193	C	0.598827	0.914298	0.595443
	C194	C	0.605694	0.103141	0.396021
	C195	C	0.405622	0.915411	0.400161
	C196	C	0.600822	0.410876	0.091661
	C197	C	0.605719	0.610719	0.901630
	C198	C	0.404305	0.606482	0.091844
	C199	C	0.408028	0.411933	0.901384
	C200	C	0.098418	0.608311	0.395796
	C201	C	0.909328	0.604198	0.595558
	C202	C	0.098444	0.407037	0.595237
	C203	C	0.909229	0.407466	0.399935
	C204	C	0.904211	0.603835	0.096990
	C205	C	0.101801	0.416411	0.094451
	C206	C	0.106700	0.603783	0.893669
	C207	C	0.905228	0.415136	0.901029
	C208	C	0.099787	0.907532	0.591956
	C209	C	0.104429	0.106770	0.402606
	C210	C	0.904924	0.103600	0.592817
	C211	C	0.905011	0.908030	0.402400
	C212	C	0.598425	0.109833	0.896818
	C213	C	0.409047	0.107315	0.096104
	C214	C	0.598437	0.909094	0.095815
	C215	C	0.408952	0.910438	0.901978
	Zn216	Zn	0.502274	0.009851	0.747884
	Zn217	Zn	0.504797	0.010049	0.246255
	Zn218	Zn	0.754040	0.510901	-0.002349
	Zn219	Zn	0.255732	0.509908	-0.005393
	Zn220	Zn	0.003072	0.757126	0.495881
	Zn221	Zn	0.003709	0.256055	0.497678
	Zn222	Zn	0.004924	0.507264	0.747009
	Zn223	Zn	0.003144	0.508512	0.247649
	Zn224	Zn	0.504052	0.758313	-0.002246
	Zn225	Zn	0.503989	0.259580	-0.002824
	Zn226	Zn	0.753982	0.007383	0.497162
	Zn227	Zn	0.252857	0.008866	0.498378
	N228	N	0.414305	0.973189	0.678840
	N229	N	0.586464	0.046290	0.672999
	N230	N	0.591010	0.972239	0.316982
	N231	N	0.419622	0.046578	0.319173
	N232	N	0.682260	0.426274	0.959641
	N233	N	0.682784	0.597065	0.033872
	N234	N	0.329142	0.594683	0.958581
	N235	N	0.325293	0.422799	0.032331
	N236	N	0.967418	0.687552	0.408305
	N237	N	0.040094	0.685966	0.581621
	N238	N	0.966807	0.327121	0.584618
	N239	N	0.041052	0.329052	0.411612
	N240	N	0.967512	0.419337	0.677877
	N241	N	0.041899	0.590754	0.671546
	N242	N	0.966153	0.593015	0.319398
	N243	N	0.040770	0.422179	0.318426
	N244	N	0.418278	0.688287	0.960751
	N245	N	0.590764	0.688005	0.033986
	N246	N	0.590618	0.331854	0.960165
	N247	N	0.417596	0.330794	0.033557
	N248	N	0.683651	0.971396	0.409943
	N249	N	0.681834	0.044111	0.582687
	N250	N	0.323080	0.972208	0.585298
	N251	N	0.326513	0.046388	0.412522
	N252	N	0.916941	0.472059	0.176609
	N253	N	0.089369	0.546780	0.174452
	N254	N	0.091215	0.471421	0.817935
	N255	N	0.920088	0.545553	0.819143
	N256	N	0.182879	0.921860	0.461031
	N257	N	0.181166	0.093574	0.534941
	N258	N	0.828430	0.091044	0.460173
	N259	N	0.822723	0.918938	0.533956
	N260	N	0.468056	0.191114	0.908938
	N261	N	0.539641	0.188547	0.083167
	N262	N	0.467246	0.827374	0.086229
	N263	N	0.540840	0.832521	0.912787
	N264	N	0.466728	0.922966	0.176616
	N265	N	0.541527	0.093888	0.171659
	N266	N	0.466307	0.095758	0.819505
	N267	N	0.539607	0.924113	0.819080
	N268	N	0.917574	0.185846	0.461689
	N269	N	0.090529	0.186257	0.534015
	N270	N	0.088365	0.830825	0.459060
	N271	N	0.915752	0.826696	0.533607
	N272	N	0.186507	0.473504	0.906924
	N273	N	0.182579	0.547251	0.079907
	N274	N	0.822260	0.473627	0.086319
	N275	N	0.827728	0.546949	0.912142
	O276	O	0.521926	0.567820	0.518220
	H277	H	0.510561	0.574405	0.521849
	H278	H	0.521960	0.569948	0.506932
	O279	O	0.977765	-0.002295	1.013763
	H280	H	0.985201	-0.004515	1.009908
	H281	H	0.968341	0.003403	1.014133
	O282	O	1.060382	1.118924	0.116071
	H283	H	1.065845	1.116460	0.123759
	H284	H	1.059526	1.119175	0.122201
	O285	O	0.983736	0.038248	0.947581
	H286	H	0.976231	0.042157	0.956128
	H287	H	0.991193	0.039491	0.936353
	O288	O	0.475459	0.448221	0.557997
	H289	H	0.484662	0.456463	0.568815
	H290	H	0.469091	0.454197	0.555191
	O291	O	0.506591	0.481616	0.536363
	H292	H	0.509111	0.477806	0.546432
	H293	H	0.504358	0.487424	0.542091
	O294	O	0.506848	0.465987	0.376895
	H295	H	0.502944	0.467503	0.370032
	H296	H	0.503160	0.475123	0.372529
	O297	O	-0.154300	0.017589	0.889249
	H298	H	-0.153036	0.015605	0.890949
	H299	H	-0.160771	0.029074	0.884798
	O300	O	0.481808	0.529489	0.623730
	H301	H	0.477503	0.526000	0.626033
	H302	H	0.481867	0.531503	0.623448
	O303	O	0.483648	0.540209	0.483054
	H304	H	0.493966	0.541319	0.497584
	H305	H	0.487508	0.534882	0.476871
	O306	O	-0.072904	0.986729	1.021161
	H307	H	-0.067647	0.987188	1.019324
	H308	H	-0.081911	0.983113	1.016972
	O309	O	0.433232	0.420807	0.559535
	H310	H	0.429508	0.412006	0.561297
	H311	H	0.422936	0.421574	0.548865
	O312	O	-0.028451	0.060590	0.096691
	H313	H	-0.040515	0.058345	0.101604
	H314	H	-0.025682	0.050756	0.094388
	O315	O	0.942599	-0.097358	-0.003938
	H316	H	0.939239	-0.092988	0.003344
	H317	H	0.945771	-0.087497	-0.001772
	O318	O	0.958668	1.081851	0.920848
	H319	H	0.946834	1.082204	0.928631
	H320	H	0.962154	1.085183	0.919828
	O321	O	0.132743	0.076367	0.986532
	H322	H	0.141015	0.083752	0.985582
	H323	H	0.140800	0.071448	0.993163
	O324	O	0.407350	0.553053	0.448663
	H325	H	0.401505	0.547981	0.450984
	H326	H	0.421989	0.561575	0.441792
	O327	O	-0.016718	0.027843	0.030044
	H328	H	-0.023745	0.020095	0.025780
	H329	H	-0.021235	0.025482	0.033493
	O330	O	0.482232	0.610114	0.410001
	H331	H	0.503703	0.621200	0.413078
	H332	H	0.481115	0.605460	0.405711
	O333	O	-0.022660	0.938621	0.876829
	H334	H	-0.021117	0.942025	0.877974
	H335	H	-0.024064	0.949889	0.878577
	O336	O	0.026214	-0.101760	-0.040173
	H337	H	0.029367	-0.101724	-0.056450
	H338	H	0.023901	-0.109700	-0.045174
	O339	O	0.514529	0.533903	0.461116
	H340	H	0.519880	0.537399	0.465382
	H341	H	0.506627	0.534373	0.466055
	O342	O	1.040546	0.850227	1.020165
	H343	H	1.026387	0.839000	1.016169
	H344	H	1.036323	0.860922	1.027047
	O345	O	0.926095	1.008683	-0.021120
	H346	H	0.928957	1.017521	-0.022380
	H347	H	0.921812	1.002861	-0.012152
	O348	O	0.497944	0.534953	0.458380
	H349	H	0.495136	0.536371	0.458115
	H350	H	0.508225	0.524912	0.458737
	O351	O	0.416209	0.430840	0.466430
	H352	H	0.412675	0.421822	0.466598
	H353	H	0.420192	0.433420	0.459877
	O354	O	0.065912	0.004760	-0.017778
	H355	H	0.064136	0.008880	-0.024007
	H356	H	0.055797	-0.000108	-0.015737
	O357	O	1.009416	0.006585	1.028990
	H358	H	1.010964	0.002768	1.029666
	H359	H	1.000919	0.003936	1.024960
	O360	O	0.485170	0.502572	0.504469
	H361	H	0.470755	0.505287	0.500152
	H362	H	0.479907	0.498602	0.508812
	O363	O	0.581551	0.533767	0.497279
	H364	H	0.584119	0.537554	0.489630
	H365	H	0.575315	0.537706	0.493038
	O366	O	1.082912	1.110299	1.072763
	H367	H	1.107365	1.109931	1.076545
	H368	H	1.086586	1.111406	1.078593
	O369	O	1.044123	0.070550	0.903255
	H370	H	1.047255	0.071220	0.907129
	H371	H	1.040991	0.077052	0.910220
	O372	O	0.149482	0.020972	-0.025184
	H373	H	0.167283	0.012889	-0.046193
	H374	H	0.157103	0.017837	-0.023532
	O375	O	1.034481	-0.037588	0.118935
	H376	H	1.037895	-0.046405	0.109243
	H377	H	1.029769	-0.040332	0.125885
	O378	O	0.480958	0.460903	0.521250
	H379	H	0.470096	0.463655	0.521600
	H380	H	0.484412	0.452017	0.532877
	O381	O	0.596869	0.517118	0.510704
	H382	H	0.592635	0.519396	0.516242
	H383	H	0.597460	0.513539	0.517902
