data_Molecule from HDF5

_cell_length_a		16.188541
_cell_length_b		16.320001
_cell_length_c		16.242756
_cell_angle_alpha	90.744284
_cell_angle_beta	89.733708
_cell_angle_gamma	89.654180
_symmetry_space_group_name_H-M	'P 1'
_symmetry_Int_Tables_number		1

loop_
	_symmetry_equiv_pos_as_xyz
	x,y,z

loop_
	_atom_site_label
	_atom_site_type_symbol
	_atom_site_fract_x
	_atom_site_fract_y
	_atom_site_fract_z
	H0	H	0.395033	0.835886	0.717341
	H1	H	0.593049	0.162433	0.718788
	H2	H	0.598960	0.836512	0.281296
	H3	H	0.392859	0.161287	0.288758
	H4	H	0.713028	0.395188	0.836758
	H5	H	0.708821	0.598744	0.164443
	H6	H	0.282084	0.598064	0.836169
	H7	H	0.281202	0.403878	0.164025
	H8	H	0.832952	0.713510	0.397981
	H9	H	0.159294	0.713325	0.600402
	H10	H	0.832004	0.285643	0.598428
	H11	H	0.159432	0.277712	0.394864
	H12	H	0.832721	0.399738	0.715367
	H13	H	0.160125	0.597735	0.713968
	H14	H	0.832818	0.596225	0.286136
	H15	H	0.160901	0.394220	0.281204
	H16	H	0.395557	0.714345	0.837986
	H17	H	0.597164	0.717760	0.162880
	H18	H	0.600661	0.277282	0.838119
	H19	H	0.394434	0.284671	0.163327
	H20	H	0.711586	0.834696	0.399333
	H21	H	0.710858	0.161155	0.604280
	H22	H	0.279648	0.834774	0.599380
	H23	H	0.278050	0.161288	0.406166
	H24	H	0.898415	0.334888	0.212135
	H25	H	0.096781	0.660260	0.218784
	H26	H	0.099378	0.336112	0.780115
	H27	H	0.896236	0.662140	0.786806
	H28	H	0.212182	0.894879	0.337376
	H29	H	0.203335	0.095106	0.666344
	H30	H	0.779768	0.094315	0.335988
	H31	H	0.781848	0.902722	0.665103
	H32	H	0.332853	0.212937	0.902741
	H33	H	0.659950	0.215105	0.101871
	H34	H	0.332543	0.785627	0.101569
	H35	H	0.659195	0.780979	0.897344
	H36	H	0.331735	0.902259	0.215336
	H37	H	0.660028	0.098836	0.218213
	H38	H	0.331557	0.098023	0.790820
	H39	H	0.658973	0.897460	0.783863
	H40	H	0.894904	0.211003	0.335557
	H41	H	0.095377	0.216841	0.661934
	H42	H	0.097554	0.777766	0.337488
	H43	H	0.893027	0.782839	0.663463
	H44	H	0.214397	0.336295	0.896797
	H45	H	0.208595	0.662679	0.099226
	H46	H	0.781224	0.335679	0.096991
	H47	H	0.779534	0.661586	0.902929
	H48	H	0.402346	0.111226	0.591032
	H49	H	0.589927	0.880151	0.598304
	H50	H	0.592068	0.114506	0.413866
	H51	H	0.407423	0.884005	0.407318
	H52	H	0.589242	0.410150	0.115806
	H53	H	0.584192	0.588242	0.885534
	H54	H	0.403415	0.597450	0.118634
	H55	H	0.400950	0.401399	0.881591
	H56	H	0.112568	0.586851	0.410322
	H57	H	0.878416	0.597890	0.588030
	H58	H	0.113592	0.402743	0.587198
	H59	H	0.874736	0.394890	0.401834
	H60	H	0.112436	0.408034	0.585892
	H61	H	0.881815	0.583127	0.590380
	H62	H	0.112648	0.586882	0.408437
	H63	H	0.883196	0.405059	0.417468
	H64	H	0.398079	0.594521	0.117785
	H65	H	0.587876	0.593018	0.882522
	H66	H	0.584007	0.408848	0.115544
	H67	H	0.406538	0.410309	0.885655
	H68	H	0.584073	0.114160	0.406785
	H69	H	0.582518	0.884722	0.592396
	H70	H	0.391870	0.117330	0.597840
	H71	H	0.401262	0.882585	0.411050
	H72	H	0.900602	0.617399	0.102558
	H73	H	0.083337	0.383390	0.093099
	H74	H	0.087313	0.614012	0.908127
	H75	H	0.907486	0.383323	0.908493
	H76	H	0.085709	0.904213	0.617811
	H77	H	0.084212	0.089396	0.383493
	H78	H	0.890842	0.087080	0.618279
	H79	H	0.906449	0.907237	0.385806
	H80	H	0.613148	0.082969	0.907209
	H81	H	0.381229	0.088092	0.093798
	H82	H	0.614937	0.903095	0.093535
	H83	H	0.377812	0.902940	0.911870
	H84	H	0.610853	0.907734	0.084685
	H85	H	0.377205	0.094382	0.101243
	H86	H	0.616284	0.093387	0.906707
	H87	H	0.379998	0.909284	0.911183
	H88	H	0.914068	0.085779	0.609982
	H89	H	0.091835	0.087878	0.381460
	H90	H	0.086983	0.904682	0.617737
	H91	H	0.906981	0.899828	0.383563
	H92	H	0.090995	0.615837	0.907501
	H93	H	0.088385	0.385429	0.081270
	H94	H	0.910245	0.612141	0.093618
	H95	H	0.902501	0.382283	0.905572
	H96	H	0.403965	0.114660	0.604112
	H97	H	0.592228	0.883798	0.589396
	H98	H	0.582690	0.111039	0.416890
	H99	H	0.402077	0.880330	0.404103
	H100	H	0.587467	0.405076	0.116449
	H101	H	0.590476	0.586732	0.883516
	H102	H	0.403533	0.591954	0.116372
	H103	H	0.410869	0.400407	0.884678
	H104	H	0.113552	0.588066	0.409019
	H105	H	0.876812	0.591835	0.602305
	H106	H	0.113798	0.407193	0.592237
	H107	H	0.881727	0.414615	0.399645
	H108	H	0.897616	0.614350	0.089059
	H109	H	0.095042	0.380664	0.090401
	H110	H	0.087736	0.616060	0.904433
	H111	H	0.907496	0.382628	0.903550
	H112	H	0.086236	0.904883	0.617257
	H113	H	0.086509	0.082646	0.384994
	H114	H	0.905222	0.106808	0.619677
	H115	H	0.900314	0.903298	0.382439
	H116	H	0.612301	0.089310	0.915041
	H117	H	0.379238	0.097674	0.090133
	H118	H	0.611344	0.913674	0.094390
	H119	H	0.377314	0.906211	0.906187
	C120	C	0.371723	0.006722	0.625092
	C121	C	0.617278	0.990376	0.624071
	C122	C	0.616831	0.006302	0.380455
	C123	C	0.373306	0.989905	0.380447
	C124	C	0.618023	0.376150	0.008636
	C125	C	0.616829	0.619819	0.991581
	C126	C	0.373950	0.621912	0.009300
	C127	C	0.375545	0.377043	0.991748
	C128	C	0.004791	0.617266	0.379675
	C129	C	0.987110	0.619870	0.622153
	C130	C	0.004891	0.377342	0.618838
	C131	C	0.987979	0.374266	0.375888
	C132	C	0.874144	0.506991	0.122092
	C133	C	0.117716	0.490419	0.120108
	C134	C	0.119560	0.507622	0.876284
	C135	C	0.875015	0.490357	0.877965
	C136	C	0.116790	0.874470	0.509314
	C137	C	0.115766	0.117594	0.491613
	C138	C	0.873588	0.120229	0.507865
	C139	C	0.874336	0.875789	0.491954
	C140	C	0.504949	0.118074	0.881346
	C141	C	0.487481	0.122291	0.124627
	C142	C	0.504311	0.879095	0.121187
	C143	C	0.486721	0.876248	0.878960
	C144	C	0.374638	0.884398	0.679650
	C145	C	0.613478	0.113324	0.680513
	C146	C	0.617655	0.884806	0.320953
	C147	C	0.373731	0.112650	0.326525
	C148	C	0.675234	0.375678	0.886071
	C149	C	0.671717	0.618915	0.115209
	C150	C	0.319376	0.618390	0.885606
	C151	C	0.318475	0.381663	0.114758
	C152	C	0.881744	0.674471	0.379780
	C153	C	0.110242	0.675339	0.620336
	C154	C	0.881173	0.322981	0.618151
	C155	C	0.110699	0.316526	0.375615
	C156	C	0.881687	0.379621	0.676561
	C157	C	0.110882	0.618223	0.677002
	C158	C	0.881726	0.616258	0.323795
	C159	C	0.111401	0.374362	0.318740
	C160	C	0.375870	0.676335	0.886455
	C161	C	0.616182	0.678212	0.114398
	C162	C	0.619176	0.316989	0.886529
	C163	C	0.375364	0.322692	0.114609
	C164	C	0.673768	0.883813	0.379730
	C165	C	0.672299	0.112802	0.623537
	C166	C	0.317320	0.883663	0.620983
	C167	C	0.316149	0.112569	0.384764
	C168	C	0.877230	0.383828	0.175222
	C169	C	0.115879	0.612412	0.179040
	C170	C	0.118875	0.385051	0.818840
	C171	C	0.876194	0.613171	0.824256
	C172	C	0.173878	0.874898	0.386307
	C173	C	0.168179	0.116366	0.616173
	C174	C	0.817646	0.115583	0.384915
	C175	C	0.818652	0.880444	0.615589
	C176	C	0.381706	0.174697	0.883335
	C177	C	0.610881	0.177467	0.122718
	C178	C	0.381273	0.823828	0.120609
	C179	C	0.609999	0.819184	0.878169
	C180	C	0.380662	0.881757	0.177291
	C181	C	0.610769	0.119867	0.180502
	C182	C	0.381054	0.117664	0.827389
	C183	C	0.609802	0.877319	0.821799
	C184	C	0.874758	0.173703	0.384661
	C185	C	0.114480	0.176849	0.613962
	C186	C	0.116687	0.816942	0.386221
	C187	C	0.874223	0.820860	0.614703
	C188	C	0.176204	0.385104	0.876892
	C189	C	0.171405	0.613581	0.119478
	C190	C	0.819187	0.384234	0.117783
	C191	C	0.818218	0.613057	0.882076
	C192	C	0.392978	0.092259	0.603957
	C193	C	0.594862	0.905061	0.600298
	C194	C	0.593219	0.091255	0.405454
	C195	C	0.396736	0.904449	0.401359
	C196	C	0.593792	0.400906	0.093948
	C197	C	0.594143	0.596255	0.906011
	C198	C	0.395450	0.600836	0.095307
	C199	C	0.399110	0.397916	0.906004
	C200	C	0.090565	0.594001	0.402550
	C201	C	0.901234	0.597416	0.600049
	C202	C	0.090875	0.399326	0.595165
	C203	C	0.902251	0.398049	0.399393
	C204	C	0.896231	0.592458	0.101296
	C205	C	0.095506	0.405344	0.095575
	C206	C	0.095779	0.593315	0.899874
	C207	C	0.898599	0.404902	0.899523
	C208	C	0.093163	0.897660	0.595224
	C209	C	0.093927	0.093672	0.405718
	C210	C	0.896637	0.099554	0.593716
	C211	C	0.897604	0.897144	0.406148
	C212	C	0.591496	0.095101	0.903309
	C213	C	0.401335	0.099970	0.101918
	C214	C	0.590259	0.901543	0.097581
	C215	C	0.400647	0.899230	0.902896
	Zn216	Zn	0.494799	-0.000813	0.753038
	Zn217	Zn	0.495451	-0.001295	0.251574
	Zn218	Zn	0.745162	0.498909	0.000065
	Zn219	Zn	0.247008	0.499743	-0.000991
	Zn220	Zn	-0.004548	0.746439	0.500604
	Zn221	Zn	-0.003711	0.247864	0.498248
	Zn222	Zn	-0.003614	0.498670	0.748723
	Zn223	Zn	-0.003078	0.497318	0.250039
	Zn224	Zn	0.496356	0.749175	0.000651
	Zn225	Zn	0.496936	0.247530	-0.000176
	Zn226	Zn	0.746239	-0.001981	0.501129
	Zn227	Zn	0.243815	-0.002890	0.501816
	N228	N	0.407703	0.961867	0.682275
	N229	N	0.580080	0.035969	0.681064
	N230	N	0.582697	0.961900	0.321319
	N231	N	0.408385	0.035471	0.323624
	N232	N	0.674884	0.411596	0.963016
	N233	N	0.672326	0.583418	0.037944
	N234	N	0.317870	0.585369	0.963014
	N235	N	0.318669	0.414840	0.037409
	N236	N	0.959421	0.675226	0.413810
	N237	N	0.032398	0.676701	0.586962
	N238	N	0.958757	0.321598	0.582997
	N239	N	0.033031	0.316218	0.410122
	N240	N	0.959462	0.412924	0.676934
	N241	N	0.033317	0.584316	0.678331
	N242	N	0.959284	0.581374	0.323423
	N243	N	0.033972	0.409701	0.318638
	N244	N	0.409017	0.678900	0.964302
	N245	N	0.582704	0.678734	0.036670
	N246	N	0.584108	0.317300	0.963955
	N247	N	0.410194	0.319818	0.037159
	N248	N	0.673367	0.960390	0.416266
	N249	N	0.674826	0.035412	0.589084
	N250	N	0.315307	0.960575	0.587714
	N251	N	0.315858	0.035218	0.417434
	N252	N	0.910677	0.461012	0.178160
	N253	N	0.083249	0.534678	0.179554
	N254	N	0.084533	0.462351	0.818406
	N255	N	0.910675	0.535775	0.821515
	N256	N	0.174014	0.909923	0.463914
	N257	N	0.169052	0.080070	0.539195
	N258	N	0.816594	0.083442	0.462778
	N259	N	0.818549	0.913632	0.538210
	N260	N	0.459951	0.175119	0.916146
	N261	N	0.533112	0.179453	0.089020
	N262	N	0.459229	0.822038	0.086399
	N263	N	0.532197	0.818244	0.912915
	N264	N	0.458267	0.915353	0.177730
	N265	N	0.532905	0.086598	0.182047
	N266	N	0.458735	0.083332	0.826126
	N267	N	0.532196	0.911917	0.822080
	N268	N	0.908620	0.176817	0.462130
	N269	N	0.082780	0.177918	0.535424
	N270	N	0.082260	0.816533	0.463805
	N271	N	0.908095	0.817845	0.536758
	N272	N	0.176777	0.462411	0.911902
	N273	N	0.172845	0.536886	0.083611
	N274	N	0.817171	0.461769	0.085647
	N275	N	0.817391	0.535682	0.914485
	O276	O	0.440245	-0.380025	1.350668
	H277	H	0.458937	-0.368969	1.354796
	H278	H	0.439328	-0.380214	1.353865
	O279	O	0.410863	0.393324	0.680019
	H280	H	0.409930	0.384392	0.692896
	H281	H	0.400667	0.390034	0.690672
	O282	O	0.674176	0.494300	0.353312
	H283	H	0.687110	0.482132	0.359230
	H284	H	0.686119	0.501868	0.354840
	O285	O	0.468819	0.489540	0.613738
	H286	H	0.463454	0.484403	0.597696
	H287	H	0.467296	0.485336	0.597246
	O288	O	0.326572	0.432267	0.445622
	H289	H	0.325117	0.439739	0.455258
	H290	H	0.318238	0.437749	0.443696
	O291	O	0.099691	-0.029114	1.074827
	H292	H	0.107049	-0.029223	1.074331
	H293	H	0.107237	-0.024359	1.065318
	O294	O	0.918199	1.088238	-0.005827
	H295	H	0.930874	1.088182	-0.002904
	H296	H	0.913413	1.094075	-0.016635
	O297	O	1.027646	0.996793	-0.041969
	H298	H	1.032443	0.988778	-0.032386
	H299	H	1.033515	1.000582	-0.041797
	O300	O	0.491503	0.454647	0.519929
	H301	H	0.503319	0.447744	0.526023
	H302	H	0.492799	0.443600	0.503430
	O303	O	0.555055	0.307517	0.324044
	H304	H	0.556879	0.284806	0.320583
	H305	H	0.560024	0.303858	0.313298
	O306	O	0.472105	0.663061	0.507265
	H307	H	0.468853	0.668063	0.505006
	H308	H	0.466447	0.657070	0.494337
	O309	O	0.566453	0.309842	0.482327
	H310	H	0.581867	0.317627	0.467545
	H311	H	0.577066	0.300485	0.486604
	O312	O	0.975287	1.062553	1.021512
	H313	H	0.970742	1.051527	1.019401
	H314	H	0.974361	1.063343	1.003754
	O315	O	1.003180	1.069938	0.089412
	H316	H	1.004177	1.069759	0.085900
	H317	H	1.007935	1.057255	0.097552
	O318	O	0.579980	0.533399	0.617833
	H319	H	0.568774	0.531689	0.623008
	H320	H	0.599578	0.532742	0.623299
	O321	O	0.465919	0.527241	0.420805
	H322	H	0.473083	0.524844	0.411233
	H323	H	0.480319	0.515272	0.412579
	O324	O	-0.048548	1.079659	0.896764
	H325	H	-0.037358	1.065829	0.893766
	H326	H	-0.049000	1.078054	0.897213
	O327	O	0.100079	0.952913	1.045526
	H328	H	0.096683	0.949760	1.041866
	H329	H	0.116105	0.957095	1.041643
	O330	O	0.006399	-0.004678	0.009479
	H331	H	0.014549	-0.015026	0.011398
	H332	H	0.004213	-0.003497	0.019191
	O333	O	0.385414	0.574376	0.483817
	H334	H	0.386002	0.561477	0.489865
	H335	H	0.394404	0.583613	0.488651
	O336	O	-0.099470	0.017828	0.140396
	H337	H	-0.092649	0.022646	0.127492
	H338	H	-0.093494	0.013678	0.140852
	O339	O	0.055808	-0.116709	-0.090821
	H340	H	0.049755	-0.107761	-0.094711
	H341	H	0.056978	-0.119687	-0.099796
	O342	O	0.397278	0.448116	0.546962
	H343	H	0.392174	0.440732	0.543221
	H344	H	0.399855	0.449456	0.532973
	O345	O	-0.037422	1.061930	1.036809
	H346	H	-0.024908	1.064458	1.049374
	H347	H	-0.041398	1.074040	1.030907
	O348	O	0.486055	0.604336	0.366919
	H349	H	0.490915	0.588705	0.370308
	H350	H	0.489749	0.609402	0.369814
	O351	O	0.606566	0.641663	0.564596
	H352	H	0.603375	0.646024	0.570567
	H353	H	0.598700	0.628940	0.555660
	O354	O	0.283622	1.303807	-0.235034
	H355	H	0.287330	1.291814	-0.246204
	H356	H	0.292246	1.305526	-0.240590
	O357	O	0.834348	0.834929	0.932867
	H358	H	0.833227	0.837227	0.933505
	H359	H	0.820535	0.833411	0.928997
	O360	O	0.942381	-0.044797	0.986826
	H361	H	0.936632	-0.045683	0.998377
	H362	H	0.945888	-0.051769	0.993085
	O363	O	0.443762	0.408857	0.463429
	H364	H	0.456009	0.408578	0.451571
	H365	H	0.438098	0.427835	0.471229
	O366	O	0.471506	0.476556	0.578648
	H367	H	0.470986	0.475135	0.570725
	H368	H	0.468816	0.465349	0.569934
	O369	O	1.032816	0.015321	0.036174
	H370	H	1.024433	0.016893	0.029165
	H371	H	1.028525	0.017661	0.037746
	O372	O	0.537918	0.632187	0.592354
	H373	H	0.539135	0.638285	0.585695
	H374	H	0.522470	0.633101	0.591779
	O375	O	0.928408	-0.026775	1.002286
	H376	H	0.938447	-0.008142	1.003404
	H377	H	0.922929	-0.020860	0.991155
	O378	O	-0.341929	1.474965	-0.536056
	H379	H	-0.336189	1.473576	-0.528072
	H380	H	-0.337046	1.481851	-0.528145
	O381	O	0.537784	0.423281	0.518829
	H382	H	0.536165	0.424992	0.515222
	H383	H	0.535638	0.431796	0.527680
	O384	O	0.973247	1.021591	-0.095566
	H385	H	0.965057	1.011300	-0.101634
	H386	H	0.974836	1.014936	-0.097555
	O387	O	1.078950	0.024455	1.021946
	H388	H	1.087723	0.023893	1.018408
	H389	H	1.090856	0.030098	1.024780
	O390	O	1.050960	1.105494	-0.073917
	H391	H	1.043880	1.091167	-0.072827
	H392	H	1.060791	1.103747	-0.070685
	O393	O	0.687040	0.348983	0.340887
	H394	H	0.689442	0.336272	0.322822
	H395	H	0.684130	0.361557	0.344958
