data_Molecule from HDF5

_cell_length_a		16.246553
_cell_length_b		16.252974
_cell_length_c		16.353798
_cell_angle_alpha	89.956279
_cell_angle_beta	89.972569
_cell_angle_gamma	90.015898
_symmetry_space_group_name_H-M	'P 1'
_symmetry_Int_Tables_number		1

loop_
	_symmetry_equiv_pos_as_xyz
	x,y,z

loop_
	_atom_site_label
	_atom_site_type_symbol
	_atom_site_fract_x
	_atom_site_fract_y
	_atom_site_fract_z
	H0	H	0.400309	0.836498	0.715775
	H1	H	0.599522	0.163217	0.714551
	H2	H	0.598166	0.836187	0.285879
	H3	H	0.400467	0.163343	0.285673
	H4	H	0.714177	0.402860	0.836832
	H5	H	0.715026	0.598002	0.163574
	H6	H	0.286696	0.598076	0.836270
	H7	H	0.286304	0.403875	0.163326
	H8	H	0.835676	0.712928	0.402174
	H9	H	0.164414	0.712140	0.595755
	H10	H	0.835861	0.287240	0.596345
	H11	H	0.164407	0.286950	0.402889
	H12	H	0.836896	0.400891	0.714534
	H13	H	0.163457	0.597921	0.713251
	H14	H	0.837361	0.599721	0.284489
	H15	H	0.163989	0.402090	0.285705
	H16	H	0.402395	0.714525	0.836337
	H17	H	0.597814	0.714231	0.163617
	H18	H	0.598563	0.285282	0.836600
	H19	H	0.402971	0.286890	0.163659
	H20	H	0.712532	0.835395	0.402806
	H21	H	0.712800	0.164156	0.596967
	H22	H	0.285835	0.836704	0.598190
	H23	H	0.289524	0.165184	0.405164
	H24	H	0.901880	0.336353	0.215030
	H25	H	0.099293	0.664164	0.214015
	H26	H	0.098808	0.336176	0.785531
	H27	H	0.901329	0.663461	0.784875
	H28	H	0.213873	0.903664	0.336860
	H29	H	0.213119	0.096416	0.663861
	H30	H	0.785744	0.096842	0.336317
	H31	H	0.785731	0.902628	0.663895
	H32	H	0.335837	0.212658	0.903635
	H33	H	0.664222	0.213517	0.097671
	H34	H	0.334526	0.787387	0.097056
	H35	H	0.664695	0.787825	0.904133
	H36	H	0.335708	0.901590	0.214479
	H37	H	0.663403	0.098284	0.214389
	H38	H	0.336813	0.099284	0.785064
	H39	H	0.663434	0.900739	0.785809
	H40	H	0.902037	0.214163	0.336590
	H41	H	0.097879	0.214121	0.663185
	H42	H	0.097308	0.786855	0.336066
	H43	H	0.901369	0.785358	0.662661
	H44	H	0.212721	0.335565	0.902723
	H45	H	0.212368	0.665397	0.094924
	H46	H	0.787920	0.335816	0.096710
	H47	H	0.786657	0.664022	0.901877
	H48	H	0.405451	0.117535	0.595534
	H49	H	0.584634	0.885185	0.592751
	H50	H	0.598128	0.118234	0.406692
	H51	H	0.409166	0.884025	0.408185
	H52	H	0.595769	0.411779	0.114806
	H53	H	0.598711	0.589986	0.884407
	H54	H	0.408478	0.582079	0.112398
	H55	H	0.409707	0.407518	0.885259
	H56	H	0.119516	0.596951	0.404449
	H57	H	0.884586	0.589792	0.589844
	H58	H	0.117703	0.405032	0.592346
	H59	H	0.883332	0.407436	0.408136
	H60	H	0.116929	0.408258	0.593024
	H61	H	0.881142	0.590823	0.598529
	H62	H	0.116073	0.593519	0.410013
	H63	H	0.882880	0.408580	0.405467
	H64	H	0.415461	0.602304	0.114554
	H65	H	0.587790	0.592738	0.886193
	H66	H	0.587978	0.403811	0.115405
	H67	H	0.407088	0.401622	0.882227
	H68	H	0.592296	0.117875	0.401489
	H69	H	0.598367	0.883182	0.587159
	H70	H	0.408303	0.117724	0.595635
	H71	H	0.403459	0.882499	0.408204
	H72	H	0.915917	0.614334	0.094001
	H73	H	0.089255	0.385542	0.091302
	H74	H	0.101258	0.618518	0.909694
	H75	H	0.896625	0.376439	0.894837
	H76	H	0.094300	0.903383	0.617548
	H77	H	0.092281	0.093664	0.384714
	H78	H	0.898746	0.094778	0.618567
	H79	H	0.900333	0.908831	0.383509
	H80	H	0.619481	0.101798	0.908261
	H81	H	0.384712	0.093027	0.088851
	H82	H	0.617776	0.900305	0.091536
	H83	H	0.383579	0.916877	0.900007
	H84	H	0.613233	0.911841	0.089363
	H85	H	0.382941	0.088176	0.097216
	H86	H	0.613319	0.086935	0.914912
	H87	H	0.378530	0.897067	0.903176
	H88	H	0.908093	0.086608	0.612706
	H89	H	0.093657	0.095875	0.383874
	H90	H	0.094792	0.908625	0.615808
	H91	H	0.910249	0.909157	0.385819
	H92	H	0.091700	0.619906	0.896425
	H93	H	0.097080	0.383281	0.090869
	H94	H	0.904936	0.614898	0.085634
	H95	H	0.922056	0.386430	0.900838
	H96	H	0.406813	0.116512	0.593058
	H97	H	0.594739	0.879635	0.601621
	H98	H	0.590738	0.115443	0.409026
	H99	H	0.406665	0.882052	0.403033
	H100	H	0.598252	0.402150	0.118311
	H101	H	0.594964	0.600928	0.882182
	H102	H	0.395133	0.597096	0.120320
	H103	H	0.402707	0.407636	0.883213
	H104	H	0.117016	0.590017	0.403373
	H105	H	0.880922	0.598520	0.593082
	H106	H	0.117857	0.406082	0.595225
	H107	H	0.882339	0.405596	0.405911
	H108	H	0.903808	0.620026	0.098469
	H109	H	0.092802	0.382613	0.097904
	H110	H	0.085650	0.613048	0.909807
	H111	H	0.901937	0.385884	0.920706
	H112	H	0.090038	0.905731	0.615093
	H113	H	0.095285	0.092830	0.382980
	H114	H	0.911223	0.099472	0.616246
	H115	H	0.906172	0.900773	0.382396
	H116	H	0.617844	0.087198	0.897997
	H117	H	0.380590	0.097977	0.096304
	H118	H	0.618146	0.907989	0.100686
	H119	H	0.386986	0.908316	0.918367
	C120	C	0.378541	0.008871	0.622537
	C121	C	0.621030	0.991217	0.621556
	C122	C	0.621291	0.008396	0.378270
	C123	C	0.378390	0.991546	0.378661
	C124	C	0.622172	0.378122	0.008336
	C125	C	0.621870	0.622396	0.992331
	C126	C	0.378060	0.622445	0.007861
	C127	C	0.378341	0.377981	0.991564
	C128	C	0.008556	0.621265	0.378077
	C129	C	0.991105	0.621119	0.621240
	C130	C	0.009008	0.378565	0.621295
	C131	C	0.991593	0.378870	0.378348
	C132	C	0.879163	0.508732	0.121873
	C133	C	0.121487	0.492057	0.121025
	C134	C	0.121606	0.508519	0.877685
	C135	C	0.878649	0.491343	0.877497
	C136	C	0.121676	0.878167	0.508001
	C137	C	0.121835	0.122055	0.491671
	C138	C	0.877773	0.121597	0.508044
	C139	C	0.877446	0.877932	0.491815
	C140	C	0.508772	0.120807	0.879011
	C141	C	0.491471	0.121176	0.121752
	C142	C	0.507844	0.878568	0.121916
	C143	C	0.491355	0.878756	0.878713
	C144	C	0.380442	0.885376	0.677324
	C145	C	0.619141	0.114627	0.676280
	C146	C	0.618459	0.884968	0.323779
	C147	C	0.381024	0.114725	0.324123
	C148	C	0.676594	0.381454	0.885395
	C149	C	0.676825	0.619017	0.114828
	C150	C	0.324094	0.619112	0.884978
	C151	C	0.324161	0.382413	0.114704
	C152	C	0.884902	0.675449	0.381470
	C153	C	0.115068	0.675338	0.617400
	C154	C	0.884991	0.324386	0.618022
	C155	C	0.115302	0.324392	0.381814
	C156	C	0.885636	0.380578	0.676550
	C157	C	0.114818	0.618491	0.675441
	C158	C	0.885476	0.619079	0.323009
	C159	C	0.115232	0.381521	0.323698
	C160	C	0.381949	0.676822	0.885058
	C161	C	0.618524	0.676623	0.115115
	C162	C	0.618924	0.323467	0.885442
	C163	C	0.382070	0.324334	0.114955
	C164	C	0.675135	0.884506	0.381751
	C165	C	0.675385	0.115060	0.617733
	C166	C	0.323764	0.885338	0.618847
	C167	C	0.325091	0.115431	0.382917
	C168	C	0.881493	0.385171	0.176939
	C169	C	0.119316	0.615390	0.175937
	C170	C	0.118901	0.384922	0.823497
	C171	C	0.881281	0.614550	0.823038
	C172	C	0.176339	0.881975	0.385386
	C173	C	0.175657	0.117856	0.614923
	C174	C	0.823538	0.117877	0.385144
	C175	C	0.823193	0.881205	0.614692
	C176	C	0.384844	0.175211	0.882430
	C177	C	0.615308	0.175457	0.118203
	C178	C	0.383984	0.824360	0.118463
	C179	C	0.615325	0.824765	0.882634
	C180	C	0.384485	0.881084	0.176731
	C181	C	0.614724	0.118387	0.176308
	C182	C	0.385314	0.119052	0.823620
	C183	C	0.614984	0.880858	0.823858
	C184	C	0.881070	0.176367	0.385278
	C185	C	0.118173	0.176046	0.614663
	C186	C	0.117995	0.824265	0.385055
	C187	C	0.881028	0.823466	0.614452
	C188	C	0.175669	0.384645	0.881556
	C189	C	0.175557	0.616074	0.116891
	C190	C	0.825029	0.384809	0.118293
	C191	C	0.824227	0.614897	0.881147
	C192	C	0.400493	0.095032	0.601239
	C193	C	0.599056	0.904915	0.600334
	C194	C	0.599940	0.094892	0.399482
	C195	C	0.400076	0.905021	0.400202
	C196	C	0.600428	0.399634	0.094174
	C197	C	0.600216	0.600725	0.906377
	C198	C	0.399775	0.600242	0.093700
	C199	C	0.399976	0.399260	0.905671
	C200	C	0.095198	0.599686	0.399402
	C201	C	0.904753	0.599503	0.600263
	C202	C	0.095174	0.399995	0.599932
	C203	C	0.905382	0.400809	0.399960
	C204	C	0.901618	0.594412	0.099346
	C205	C	0.099491	0.406065	0.099617
	C206	C	0.099492	0.594749	0.899024
	C207	C	0.900320	0.405055	0.899156
	C208	C	0.099683	0.899646	0.593983
	C209	C	0.100359	0.100447	0.405872
	C210	C	0.899640	0.100100	0.593909
	C211	C	0.899279	0.899913	0.406022
	C212	C	0.594600	0.098604	0.900640
	C213	C	0.404842	0.099462	0.100163
	C214	C	0.594281	0.900338	0.100269
	C215	C	0.405450	0.901047	0.900510
	Zn216	Zn	0.500507	-0.000330	0.750595
	Zn217	Zn	0.499645	-0.000288	0.250595
	Zn218	Zn	0.751026	0.499927	0.000193
	Zn219	Zn	0.249531	0.500637	-0.000660
	Zn220	Zn	-0.000241	0.749003	0.499673
	Zn221	Zn	-0.000267	0.250637	0.500050
	Zn222	Zn	0.000462	0.499564	0.749243
	Zn223	Zn	0.000094	0.500372	0.249997
	Zn224	Zn	0.499611	0.750934	0.000188
	Zn225	Zn	0.500381	0.249308	0.000108
	Zn226	Zn	0.748642	-0.000231	0.500114
	Zn227	Zn	0.250873	0.000082	0.500449
	N228	N	0.413812	0.962994	0.679779
	N229	N	0.586072	0.036752	0.678659
	N230	N	0.585678	0.962942	0.321539
	N231	N	0.413539	0.036737	0.321637
	N232	N	0.678648	0.414840	0.962670
	N233	N	0.679001	0.585987	0.037488
	N234	N	0.321882	0.585826	0.962295
	N235	N	0.321724	0.415119	0.037148
	N236	N	0.962431	0.676850	0.414902
	N237	N	0.037326	0.676852	0.584280
	N238	N	0.962517	0.323002	0.584353
	N239	N	0.037478	0.322751	0.414969
	N240	N	0.963589	0.413675	0.678626
	N241	N	0.036945	0.585425	0.677903
	N242	N	0.963385	0.586168	0.321015
	N243	N	0.037369	0.414720	0.321412
	N244	N	0.414693	0.678868	0.962564
	N245	N	0.584960	0.678485	0.037959
	N246	N	0.585960	0.321258	0.962964
	N247	N	0.415225	0.321766	0.037528
	N248	N	0.677065	0.962292	0.414930
	N249	N	0.676654	0.037290	0.584482
	N250	N	0.322694	0.962881	0.585245
	N251	N	0.323540	0.037715	0.416319
	N252	N	0.914349	0.463108	0.179151
	N253	N	0.086540	0.537386	0.178739
	N254	N	0.086077	0.462864	0.821028
	N255	N	0.914471	0.536752	0.820749
	N256	N	0.178473	0.914839	0.462815
	N257	N	0.177762	0.084842	0.537594
	N258	N	0.821419	0.084464	0.462507
	N259	N	0.821206	0.914719	0.537536
	N260	N	0.462344	0.176564	0.916180
	N261	N	0.537540	0.177303	0.085109
	N262	N	0.461733	0.822720	0.085098
	N263	N	0.537605	0.823377	0.915943
	N264	N	0.462426	0.914225	0.178815
	N265	N	0.536787	0.085358	0.178477
	N266	N	0.463176	0.085771	0.821454
	N267	N	0.537039	0.913530	0.821293
	N268	N	0.914117	0.178527	0.462638
	N269	N	0.085482	0.178738	0.537095
	N270	N	0.084750	0.821964	0.462411
	N271	N	0.913956	0.821319	0.537066
	N272	N	0.177379	0.462513	0.914649
	N273	N	0.177033	0.538548	0.083395
	N274	N	0.823396	0.462475	0.084616
	N275	N	0.822486	0.537246	0.914393
