data_Molecule from HDF5

_cell_length_a		16.057327
_cell_length_b		16.357149
_cell_length_c		16.308096
_cell_angle_alpha	89.481834
_cell_angle_beta	90.081888
_cell_angle_gamma	89.930934
_symmetry_space_group_name_H-M	'P 1'
_symmetry_Int_Tables_number		1

loop_
	_symmetry_equiv_pos_as_xyz
	x,y,z

loop_
	_atom_site_label
	_atom_site_type_symbol
	_atom_site_fract_x
	_atom_site_fract_y
	_atom_site_fract_z
	H0	H	0.395862	0.839101	0.719238
	H1	H	0.598467	0.163129	0.717957
	H2	H	0.600431	0.840331	0.285083
	H3	H	0.394369	0.163374	0.280901
	H4	H	0.708518	0.406785	0.837297
	H5	H	0.712315	0.599012	0.164566
	H6	H	0.284200	0.600286	0.836742
	H7	H	0.282446	0.403336	0.165757
	H8	H	0.833075	0.720127	0.395844
	H9	H	0.163098	0.713714	0.597034
	H10	H	0.832500	0.285871	0.602771
	H11	H	0.161198	0.288554	0.400597
	H12	H	0.831178	0.402178	0.715054
	H13	H	0.161019	0.601323	0.713744
	H14	H	0.831029	0.603356	0.284578
	H15	H	0.160339	0.402308	0.285867
	H16	H	0.391118	0.722867	0.840956
	H17	H	0.597347	0.716761	0.164471
	H18	H	0.598182	0.285835	0.839762
	H19	H	0.394344	0.282281	0.164177
	H20	H	0.712105	0.839077	0.405329
	H21	H	0.711088	0.165105	0.598237
	H22	H	0.283487	0.838139	0.599178
	H23	H	0.282854	0.165617	0.401152
	H24	H	0.892669	0.341497	0.219821
	H25	H	0.097287	0.663897	0.216206
	H26	H	0.098100	0.340014	0.784030
	H27	H	0.893507	0.664161	0.780863
	H28	H	0.210936	0.907829	0.336077
	H29	H	0.210594	0.097703	0.665006
	H30	H	0.782750	0.101664	0.337171
	H31	H	0.784634	0.903994	0.664987
	H32	H	0.332288	0.217226	0.900860
	H33	H	0.661320	0.216312	0.103245
	H34	H	0.330949	0.786352	0.103627
	H35	H	0.660341	0.786943	0.903417
	H36	H	0.332495	0.900637	0.218279
	H37	H	0.662489	0.099109	0.213911
	H38	H	0.332548	0.102796	0.786056
	H39	H	0.661538	0.901378	0.789019
	H40	H	0.892529	0.223224	0.339878
	H41	H	0.099946	0.218858	0.662814
	H42	H	0.099549	0.787180	0.336538
	H43	H	0.895709	0.782053	0.661532
	H44	H	0.211725	0.338954	0.904870
	H45	H	0.209520	0.665537	0.096354
	H46	H	0.783788	0.338454	0.097959
	H47	H	0.779809	0.665021	0.899796
	H48	H	0.414418	0.115326	0.599374
	H49	H	0.587893	0.885468	0.598270
	H50	H	0.590848	0.121094	0.399309
	H51	H	0.408597	0.886916	0.406301
	H52	H	0.587212	0.412320	0.116524
	H53	H	0.583034	0.602616	0.885289
	H54	H	0.410475	0.596242	0.117160
	H55	H	0.400013	0.402086	0.881875
	H56	H	0.115672	0.600336	0.409649
	H57	H	0.880675	0.589841	0.588014
	H58	H	0.114634	0.412516	0.597262
	H59	H	0.878004	0.409449	0.411031
	H60	H	0.115217	0.406183	0.591748
	H61	H	0.875989	0.594587	0.594572
	H62	H	0.111666	0.588434	0.412248
	H63	H	0.879400	0.414097	0.413096
	H64	H	0.398984	0.600710	0.121562
	H65	H	0.592753	0.595294	0.884664
	H66	H	0.584677	0.404016	0.118136
	H67	H	0.400812	0.416465	0.886461
	H68	H	0.581128	0.115917	0.406944
	H69	H	0.590609	0.885857	0.594414
	H70	H	0.404167	0.115661	0.583967
	H71	H	0.406503	0.888137	0.412444
	H72	H	0.910305	0.617176	0.094769
	H73	H	0.081167	0.387262	0.097729
	H74	H	0.082504	0.617381	0.901796
	H75	H	0.915375	0.388223	0.900353
	H76	H	0.083698	0.907818	0.613928
	H77	H	0.097468	0.093195	0.383017
	H78	H	0.913334	0.096788	0.615208
	H79	H	0.902380	0.914569	0.384239
	H80	H	0.618100	0.095892	0.903711
	H81	H	0.383002	0.086373	0.085113
	H82	H	0.612718	0.904977	0.085537
	H83	H	0.379485	0.912454	0.912109
	H84	H	0.613151	0.916169	0.095326
	H85	H	0.377596	0.088845	0.099982
	H86	H	0.615519	0.098895	0.914215
	H87	H	0.377317	0.912238	0.909377
	H88	H	0.900796	0.100334	0.620230
	H89	H	0.080769	0.091999	0.388610
	H90	H	0.089925	0.900402	0.617568
	H91	H	0.910563	0.912919	0.386388
	H92	H	0.087430	0.615955	0.911680
	H93	H	0.088738	0.387830	0.087794
	H94	H	0.903903	0.615650	0.085870
	H95	H	0.903255	0.389652	0.919603
	H96	H	0.396700	0.121429	0.600374
	H97	H	0.592219	0.884806	0.598031
	H98	H	0.593030	0.117217	0.411542
	H99	H	0.402220	0.884606	0.408240
	H100	H	0.593555	0.405208	0.119356
	H101	H	0.582070	0.590664	0.888262
	H102	H	0.400086	0.587571	0.116692
	H103	H	0.413403	0.406896	0.887900
	H104	H	0.116508	0.591837	0.399829
	H105	H	0.878695	0.597109	0.586597
	H106	H	0.112678	0.413277	0.588626
	H107	H	0.878141	0.413705	0.408064
	H108	H	0.899260	0.621086	0.095450
	H109	H	0.093772	0.383881	0.098554
	H110	H	0.093234	0.619755	0.902438
	H111	H	0.893858	0.381660	0.901000
	H112	H	0.093786	0.909425	0.616356
	H113	H	0.087044	0.107896	0.382281
	H114	H	0.902995	0.086900	0.615781
	H115	H	0.905650	0.906445	0.383136
	H116	H	0.613417	0.087670	0.911213
	H117	H	0.377380	0.100256	0.089366
	H118	H	0.617525	0.902545	0.099517
	H119	H	0.377958	0.909205	0.911343
	C120	C	0.375135	0.009935	0.624231
	C121	C	0.619151	0.993070	0.624410
	C122	C	0.618781	0.010791	0.378707
	C123	C	0.375515	0.993613	0.378763
	C124	C	0.617895	0.379765	0.010193
	C125	C	0.617155	0.624083	0.993157
	C126	C	0.374025	0.624507	0.010290
	C127	C	0.374611	0.378974	0.993360
	C128	C	0.005553	0.623961	0.377327
	C129	C	0.987762	0.622792	0.619250
	C130	C	0.005268	0.380901	0.622449
	C131	C	0.987271	0.382234	0.380613
	C132	C	0.874578	0.510698	0.122133
	C133	C	0.117548	0.493600	0.122698
	C134	C	0.117859	0.510459	0.877574
	C135	C	0.873861	0.494010	0.877539
	C136	C	0.118842	0.879560	0.508247
	C137	C	0.118630	0.125016	0.492375
	C138	C	0.875194	0.124701	0.509839
	C139	C	0.876387	0.880746	0.491804
	C140	C	0.506149	0.123482	0.880312
	C141	C	0.488279	0.121122	0.121642
	C142	C	0.505319	0.879073	0.123614
	C143	C	0.487208	0.881665	0.882041
	C144	C	0.376040	0.887809	0.680875
	C145	C	0.617853	0.115146	0.679270
	C146	C	0.619348	0.888661	0.323555
	C147	C	0.375519	0.115422	0.320699
	C148	C	0.671883	0.384746	0.886552
	C149	C	0.674095	0.620430	0.115839
	C150	C	0.319770	0.621989	0.886605
	C151	C	0.319679	0.382121	0.116474
	C152	C	0.881924	0.681245	0.377526
	C153	C	0.113001	0.676766	0.617343
	C154	C	0.881494	0.324427	0.621927
	C155	C	0.111830	0.326542	0.381564
	C156	C	0.880914	0.382221	0.677861
	C157	C	0.112025	0.621108	0.675516
	C158	C	0.880739	0.622689	0.322190
	C159	C	0.111490	0.383111	0.324155
	C160	C	0.373354	0.682686	0.888607
	C161	C	0.616925	0.678786	0.115760
	C162	C	0.617257	0.324210	0.888008
	C163	C	0.374950	0.321560	0.115592
	C164	C	0.674899	0.888052	0.383498
	C165	C	0.673556	0.116094	0.619802
	C166	C	0.320230	0.887268	0.620884
	C167	C	0.319984	0.116445	0.380425
	C168	C	0.874135	0.389385	0.180336
	C169	C	0.116676	0.615487	0.178106
	C170	C	0.117686	0.388409	0.822408
	C171	C	0.873898	0.615822	0.820130
	C172	C	0.173928	0.885384	0.384983
	C173	C	0.173566	0.119598	0.615619
	C174	C	0.819242	0.122930	0.386763
	C175	C	0.821651	0.882551	0.615502
	C176	C	0.381838	0.179306	0.881429
	C177	C	0.612243	0.177530	0.121512
	C178	C	0.380704	0.824065	0.122987
	C179	C	0.611271	0.825023	0.883656
	C180	C	0.381281	0.880951	0.179914
	C181	C	0.612989	0.119057	0.176619
	C182	C	0.381897	0.122522	0.824267
	C183	C	0.611807	0.882026	0.826766
	C184	C	0.874284	0.183101	0.387976
	C185	C	0.118416	0.179765	0.614709
	C186	C	0.118604	0.825402	0.385393
	C187	C	0.877079	0.822202	0.613824
	C188	C	0.173910	0.387801	0.882423
	C189	C	0.172736	0.616317	0.118630
	C190	C	0.820071	0.387719	0.119730
	C191	C	0.817687	0.616184	0.879500
	C192	C	0.398355	0.095442	0.601211
	C193	C	0.596774	0.907610	0.603278
	C194	C	0.595114	0.095945	0.399753
	C195	C	0.398875	0.908705	0.402083
	C196	C	0.595102	0.400990	0.095794
	C197	C	0.593114	0.602633	0.908164
	C198	C	0.396525	0.601608	0.096093
	C199	C	0.397803	0.401823	0.907634
	C200	C	0.092245	0.600409	0.400390
	C201	C	0.901164	0.600428	0.596496
	C202	C	0.091767	0.403887	0.599363
	C203	C	0.900949	0.405484	0.403860
	C204	C	0.897624	0.595906	0.098843
	C205	C	0.094472	0.408301	0.100930
	C206	C	0.094396	0.595539	0.898900
	C207	C	0.897227	0.408670	0.900379
	C208	C	0.095864	0.899897	0.593964
	C209	C	0.095468	0.103998	0.406754
	C210	C	0.898914	0.101422	0.595125
	C211	C	0.899356	0.904469	0.406661
	C212	C	0.593104	0.100799	0.903088
	C213	C	0.401676	0.098351	0.098520
	C214	C	0.592096	0.901316	0.100292
	C215	C	0.400703	0.904688	0.904298
	Zn216	Zn	0.497205	0.001615	0.753416
	Zn217	Zn	0.497094	0.001541	0.249419
	Zn218	Zn	0.746242	0.501837	0.001276
	Zn219	Zn	0.246787	0.502640	0.001058
	Zn220	Zn	-0.002741	0.750638	0.498611
	Zn221	Zn	-0.003493	0.254063	0.501313
	Zn222	Zn	-0.004011	0.502457	0.748047
	Zn223	Zn	-0.004578	0.502194	0.251530
	Zn224	Zn	0.494959	0.752956	0.002344
	Zn225	Zn	0.497429	0.249826	0.002072
	Zn226	Zn	0.747169	0.002470	0.501400
	Zn227	Zn	0.247137	0.002200	0.500405
	N228	N	0.409271	0.965400	0.683249
	N229	N	0.584743	0.037647	0.682292
	N230	N	0.585109	0.965819	0.320405
	N231	N	0.409241	0.038211	0.319469
	N232	N	0.672454	0.418636	0.963518
	N233	N	0.674329	0.587105	0.038886
	N234	N	0.319966	0.586491	0.963368
	N235	N	0.319093	0.417022	0.039272
	N236	N	0.960507	0.682086	0.411026
	N237	N	0.034726	0.678228	0.583291
	N238	N	0.959832	0.323596	0.588156
	N239	N	0.033658	0.325838	0.415887
	N240	N	0.958991	0.416642	0.678256
	N241	N	0.033227	0.588325	0.676967
	N242	N	0.958846	0.587872	0.321850
	N243	N	0.033073	0.417280	0.323543
	N244	N	0.406265	0.684427	0.966534
	N245	N	0.582149	0.681452	0.038430
	N246	N	0.584101	0.321280	0.965809
	N247	N	0.408352	0.319471	0.037949
	N248	N	0.674751	0.964969	0.416849
	N249	N	0.674760	0.039080	0.586407
	N250	N	0.319504	0.964359	0.586570
	N251	N	0.320027	0.039884	0.416126
	N252	N	0.907330	0.466865	0.181914
	N253	N	0.083325	0.537957	0.180944
	N254	N	0.083761	0.465746	0.819113
	N255	N	0.908295	0.538762	0.818714
	N256	N	0.174364	0.918249	0.462419
	N257	N	0.173884	0.086177	0.538484
	N258	N	0.819697	0.087196	0.463481
	N259	N	0.821279	0.918250	0.538928
	N260	N	0.460207	0.180087	0.915436
	N261	N	0.533504	0.178854	0.088035
	N262	N	0.458922	0.822928	0.088781
	N263	N	0.532701	0.824270	0.917107
	N264	N	0.459896	0.914314	0.180629
	N265	N	0.534946	0.084548	0.176493
	N266	N	0.460459	0.088743	0.823051
	N267	N	0.533853	0.916768	0.825765
	N268	N	0.908215	0.184410	0.465415
	N269	N	0.085096	0.183388	0.537009
	N270	N	0.084941	0.821725	0.462857
	N271	N	0.910112	0.820641	0.535875
	N272	N	0.174405	0.464559	0.915881
	N273	N	0.173279	0.539647	0.084815
	N274	N	0.820166	0.464263	0.084329
	N275	N	0.817731	0.539416	0.914469
	O276	O	1.105771	0.019360	0.970852
	H277	H	1.095882	0.007253	0.966345
	H278	H	1.094059	0.018549	0.985653
	O279	O	0.490088	0.533966	0.577715
	H280	H	0.495818	0.531388	0.587725
	H281	H	0.486737	0.542382	0.578785
	O282	O	0.535871	0.571641	0.561815
	H283	H	0.546676	0.580863	0.568116
	H284	H	0.536227	0.585757	0.569150
	O285	O	0.529925	0.571019	0.418514
	H286	H	0.528960	0.569327	0.424096
	H287	H	0.521753	0.581927	0.411313
	O288	O	0.460145	0.433409	0.403501
	H289	H	0.465736	0.435125	0.395140
	H290	H	0.478400	0.433650	0.398120
	O291	O	0.032480	-0.039371	0.943878
	H292	H	0.053343	-0.033322	0.950015
	H293	H	0.028028	-0.049755	0.930393
	O294	O	0.961546	1.074399	0.008926
	H295	H	0.955925	1.074934	0.012421
	H296	H	0.953208	1.075360	0.016503
	O297	O	1.128506	1.034073	0.109308
	H298	H	1.115867	1.040547	0.105507
	H299	H	1.138458	1.030968	0.099842
	O300	O	0.388002	0.558516	0.576448
	H301	H	0.400075	0.559287	0.564568
	H302	H	0.375824	0.532903	0.591350
	O303	O	0.565990	0.677919	0.544230
	H304	H	0.559292	0.688180	0.551721
	H305	H	0.564104	0.689410	0.539313
	O306	O	0.572167	0.539247	0.562815
	H307	H	0.574852	0.528037	0.560049
	H308	H	0.581620	0.545068	0.565672
	O309	O	0.570242	0.663287	0.559214
	H310	H	0.577918	0.670081	0.564577
	H311	H	0.560359	0.658209	0.556304
	O312	O	0.880171	0.932695	0.977604
	H313	H	0.877613	0.921171	0.984642
	H314	H	0.885986	0.929589	0.965177
	O315	O	1.052313	0.988744	-0.084417
	H316	H	1.062032	0.990737	-0.083096
	H317	H	1.058436	0.995994	-0.089383
	O318	O	0.471032	0.624799	0.391311
	H319	H	0.460243	0.624681	0.397458
	H320	H	0.463806	0.628609	0.398831
	O321	O	0.518004	0.403159	0.420160
	H322	H	0.512703	0.400331	0.422295
	H323	H	0.521303	0.396342	0.417341
	O324	O	0.012463	1.027134	0.938622
	H325	H	0.010192	1.024091	0.946428
	H326	H	0.016817	1.039018	0.929763
	O327	O	0.003787	0.976585	1.001698
	H328	H	0.003245	0.983809	1.009212
	H329	H	0.007877	0.969911	1.007479
	O330	O	-0.046111	-0.013649	0.024375
	H331	H	-0.044697	-0.003543	0.021228
	H332	H	-0.051938	-0.004422	0.037746
	O333	O	0.385291	0.581773	0.371578
	H334	H	0.376813	0.582548	0.369624
	H335	H	0.383841	0.576192	0.380311
	O336	O	0.027038	0.066728	-0.010691
	H337	H	0.014073	0.069971	-0.001877
	H338	H	0.047287	0.065852	-0.012293
	O339	O	-0.061605	-0.120346	0.049197
	H340	H	-0.075160	-0.118765	0.046784
	H341	H	-0.049243	-0.126299	0.055390
	O342	O	0.359516	0.463471	0.621220
	H343	H	0.357040	0.459718	0.616742
	H344	H	0.363902	0.443330	0.621011
	O345	O	0.012021	0.974179	0.919360
	H346	H	-0.000750	0.978275	0.926437
	H347	H	0.010579	0.972929	0.906741
	O348	O	0.495173	0.400609	0.392291
	H349	H	0.497556	0.401422	0.387122
	H350	H	0.506101	0.403363	0.394786
	O351	O	0.465298	0.407194	0.496109
	H352	H	0.476560	0.404271	0.502530
	H353	H	0.467542	0.405506	0.490697
	O354	O	0.008002	0.928181	0.085944
	H355	H	0.004470	0.920277	0.078495
	H356	H	0.005658	0.920329	0.095304
	O357	O	0.489181	0.498170	0.462099
	H358	H	0.473753	0.496451	0.451425
	H359	H	0.489693	0.487576	0.463372
	O360	O	0.942984	0.082041	1.091016
	H361	H	0.946171	0.083880	1.094629
	H362	H	0.939560	0.081829	1.084889
	O363	O	0.594951	0.445750	0.464708
	H364	H	0.593142	0.465515	0.471839
	H365	H	0.597508	0.442488	0.463362
	O366	O	0.401245	0.332699	0.628242
	H367	H	0.376968	0.312237	0.631083
	H368	H	0.403890	0.335465	0.613459
	O369	O	1.026067	-0.013753	0.004472
	H370	H	1.016948	-0.021511	0.005516
	H371	H	1.022114	-0.006893	-0.004024
	O372	O	0.514859	0.409079	0.595003
	H373	H	0.514124	0.404846	0.593004
	H374	H	0.492547	0.411546	0.606315
	O375	O	0.994126	-0.038164	1.153169
	H376	H	0.983594	-0.035854	1.156007
	H377	H	0.998904	-0.037012	1.149304
	O378	O	-0.193909	1.120354	-0.277197
	H379	H	-0.193657	1.129586	-0.277946
	H380	H	-0.201602	1.119532	-0.287173
	O381	O	0.470110	0.413664	0.543288
	H382	H	0.466281	0.430177	0.540661
	H383	H	0.475569	0.426839	0.532374
	O384	O	1.009744	1.079868	0.007237
	H385	H	1.013912	1.096914	0.029040
	H386	H	1.024875	1.084599	-0.006226
	O387	O	0.947007	0.002386	0.952670
	H388	H	0.952668	-0.005544	0.953876
	H389	H	0.949064	0.000332	0.954898
	O390	O	1.004994	0.987257	-0.060963
	H391	H	1.006547	0.972328	-0.069003
	H392	H	0.994218	0.975829	-0.071180
	O393	O	0.556124	0.486776	0.510593
	H394	H	0.565193	0.482170	0.516173
	H395	H	0.542046	0.478075	0.511119
