data_Molecule from HDF5

_cell_length_a		16.035546
_cell_length_b		16.363443
_cell_length_c		16.267161
_cell_angle_alpha	89.950814
_cell_angle_beta	89.979348
_cell_angle_gamma	89.859440
_symmetry_space_group_name_H-M	'P 1'
_symmetry_Int_Tables_number		1

loop_
	_symmetry_equiv_pos_as_xyz
	x,y,z

loop_
	_atom_site_label
	_atom_site_type_symbol
	_atom_site_fract_x
	_atom_site_fract_y
	_atom_site_fract_z
	H0	H	0.404254	0.838537	0.721018
	H1	H	0.604425	0.163819	0.722276
	H2	H	0.603252	0.838546	0.290753
	H3	H	0.402955	0.165082	0.288354
	H4	H	0.715442	0.405922	0.839549
	H5	H	0.713524	0.595587	0.170140
	H6	H	0.292663	0.597282	0.839776
	H7	H	0.291956	0.407408	0.170110
	H8	H	0.838097	0.716500	0.406001
	H9	H	0.168988	0.716082	0.604270
	H10	H	0.838005	0.289667	0.603584
	H11	H	0.170126	0.289359	0.404604
	H12	H	0.837760	0.404270	0.717637
	H13	H	0.169822	0.599754	0.716875
	H14	H	0.837468	0.600332	0.292613
	H15	H	0.170127	0.405223	0.291987
	H16	H	0.401368	0.719432	0.842192
	H17	H	0.603958	0.717414	0.168022
	H18	H	0.607545	0.282715	0.842949
	H19	H	0.401924	0.285568	0.168782
	H20	H	0.716685	0.837626	0.409898
	H21	H	0.714825	0.166678	0.599986
	H22	H	0.292552	0.836751	0.599365
	H23	H	0.290480	0.166596	0.408681
	H24	H	0.903583	0.339813	0.221022
	H25	H	0.102468	0.665794	0.219016
	H26	H	0.104117	0.340175	0.787789
	H27	H	0.902578	0.665346	0.788181
	H28	H	0.214453	0.908243	0.339378
	H29	H	0.215006	0.097304	0.670425
	H30	H	0.791238	0.098285	0.339318
	H31	H	0.794894	0.909021	0.670566
	H32	H	0.338169	0.216699	0.906253
	H33	H	0.669003	0.214507	0.105683
	H34	H	0.337709	0.789117	0.104016
	H35	H	0.668262	0.787236	0.905327
	H36	H	0.337726	0.904455	0.217564
	H37	H	0.670018	0.097349	0.216138
	H38	H	0.337549	0.100523	0.791976
	H39	H	0.669695	0.903756	0.793894
	H40	H	0.903454	0.218009	0.340551
	H41	H	0.104781	0.218590	0.668092
	H42	H	0.105149	0.786322	0.341976
	H43	H	0.903406	0.786418	0.667664
	H44	H	0.218091	0.338145	0.907574
	H45	H	0.215910	0.666988	0.099281
	H46	H	0.792358	0.337162	0.099859
	H47	H	0.789935	0.666546	0.908907
	H48	H	0.412385	0.117567	0.601621
	H49	H	0.584696	0.888239	0.604508
	H50	H	0.606505	0.121505	0.408458
	H51	H	0.420749	0.889206	0.410536
	H52	H	0.599799	0.412248	0.121454
	H53	H	0.587200	0.586841	0.892839
	H54	H	0.402250	0.591442	0.123383
	H55	H	0.410643	0.403981	0.887837
	H56	H	0.121498	0.590920	0.410493
	H57	H	0.885421	0.593266	0.596971
	H58	H	0.118028	0.416127	0.589818
	H59	H	0.880458	0.394376	0.411075
	H60	H	0.124138	0.412482	0.604467
	H61	H	0.884205	0.597534	0.597291
	H62	H	0.124779	0.597799	0.407318
	H63	H	0.890434	0.415001	0.424748
	H64	H	0.420167	0.591718	0.118075
	H65	H	0.589964	0.609003	0.885321
	H66	H	0.590582	0.405028	0.120758
	H67	H	0.411701	0.411857	0.888985
	H68	H	0.589334	0.117813	0.402311
	H69	H	0.602616	0.887140	0.587359
	H70	H	0.412694	0.116500	0.598200
	H71	H	0.404002	0.886417	0.419142
	H72	H	0.918676	0.615725	0.098516
	H73	H	0.103134	0.383297	0.104924
	H74	H	0.100995	0.620597	0.906590
	H75	H	0.912178	0.385966	0.906457
	H76	H	0.092155	0.910110	0.620177
	H77	H	0.100579	0.099372	0.386011
	H78	H	0.921948	0.096510	0.617865
	H79	H	0.902548	0.911067	0.385472
	H80	H	0.619909	0.086348	0.913632
	H81	H	0.387389	0.091469	0.091121
	H82	H	0.625469	0.906145	0.103714
	H83	H	0.386386	0.912522	0.917885
	H84	H	0.623130	0.903607	0.092548
	H85	H	0.384077	0.090352	0.103037
	H86	H	0.623948	0.095884	0.908208
	H87	H	0.382978	0.911658	0.907412
	H88	H	0.908396	0.107761	0.624153
	H89	H	0.095912	0.091316	0.389498
	H90	H	0.095881	0.901916	0.623274
	H91	H	0.918633	0.911884	0.391160
	H92	H	0.091787	0.617665	0.907064
	H93	H	0.088322	0.388017	0.101957
	H94	H	0.902732	0.617865	0.091603
	H95	H	0.913832	0.388151	0.912019
	H96	H	0.409057	0.118122	0.598731
	H97	H	0.607982	0.879644	0.610344
	H98	H	0.593563	0.114521	0.419908
	H99	H	0.406147	0.882288	0.401021
	H100	H	0.600660	0.400978	0.125029
	H101	H	0.608188	0.593978	0.885235
	H102	H	0.411589	0.606632	0.125115
	H103	H	0.417919	0.406278	0.889705
	H104	H	0.122503	0.598291	0.415061
	H105	H	0.884816	0.595680	0.593800
	H106	H	0.124227	0.400735	0.593162
	H107	H	0.883649	0.417565	0.398996
	H108	H	0.905694	0.621775	0.108473
	H109	H	0.099283	0.387828	0.090787
	H110	H	0.097233	0.617087	0.914994
	H111	H	0.907977	0.385918	0.910467
	H112	H	0.101168	0.910060	0.622479
	H113	H	0.091336	0.099445	0.389092
	H114	H	0.904559	0.089764	0.621750
	H115	H	0.912333	0.897870	0.385128
	H116	H	0.620586	0.096422	0.920132
	H117	H	0.382958	0.101142	0.097426
	H118	H	0.620711	0.913852	0.096605
	H119	H	0.382979	0.904066	0.913883
	C120	C	0.382579	0.009642	0.627142
	C121	C	0.626604	0.993155	0.628466
	C122	C	0.625486	0.009895	0.383009
	C123	C	0.381867	0.993987	0.382537
	C124	C	0.625765	0.378560	0.013820
	C125	C	0.624493	0.624182	0.996053
	C126	C	0.382571	0.624185	0.013380
	C127	C	0.383246	0.379809	0.997217
	C128	C	0.012723	0.623644	0.383543
	C129	C	0.994783	0.623621	0.625017
	C130	C	0.012362	0.381539	0.624695
	C131	C	0.995154	0.381197	0.383202
	C132	C	0.880906	0.510427	0.127325
	C133	C	0.125381	0.494390	0.126442
	C134	C	0.126097	0.510850	0.881713
	C135	C	0.881955	0.494445	0.881947
	C136	C	0.125224	0.880121	0.513398
	C137	C	0.125343	0.124843	0.496677
	C138	C	0.882512	0.125116	0.512747
	C139	C	0.883069	0.880274	0.495930
	C140	C	0.512174	0.122382	0.884890
	C141	C	0.494549	0.122280	0.126185
	C142	C	0.512703	0.880296	0.126253
	C143	C	0.494402	0.880946	0.884838
	C144	C	0.384452	0.886768	0.682117
	C145	C	0.623573	0.115778	0.683033
	C146	C	0.622924	0.887059	0.329008
	C147	C	0.383524	0.116750	0.327385
	C148	C	0.679543	0.383451	0.889311
	C149	C	0.677800	0.618300	0.120504
	C150	C	0.328945	0.619457	0.889246
	C151	C	0.328308	0.384678	0.120924
	C152	C	0.887642	0.678698	0.385918
	C153	C	0.119814	0.678108	0.623480
	C154	C	0.887518	0.327038	0.623197
	C155	C	0.120358	0.326629	0.385090
	C156	C	0.887304	0.383837	0.680008
	C157	C	0.120080	0.620352	0.679556
	C158	C	0.887318	0.620786	0.329747
	C159	C	0.120359	0.384266	0.328967
	C160	C	0.382895	0.680302	0.890811
	C161	C	0.623390	0.678809	0.119428
	C162	C	0.625850	0.322183	0.891050
	C163	C	0.383138	0.324207	0.120039
	C164	C	0.679221	0.886501	0.388337
	C165	C	0.679286	0.116871	0.622973
	C166	C	0.328738	0.886036	0.622050
	C167	C	0.327403	0.117479	0.386971
	C168	C	0.884105	0.387857	0.182028
	C169	C	0.122956	0.617088	0.181222
	C170	C	0.124065	0.388239	0.826552
	C171	C	0.883313	0.617202	0.826997
	C172	C	0.178571	0.885784	0.389092
	C173	C	0.178811	0.119802	0.620802
	C174	C	0.827832	0.120490	0.388746
	C175	C	0.830492	0.886165	0.620684
	C176	C	0.387444	0.178226	0.886677
	C177	C	0.619762	0.176719	0.124610
	C178	C	0.387278	0.826577	0.123742
	C179	C	0.619117	0.825841	0.886525
	C180	C	0.387379	0.884026	0.180108
	C181	C	0.620365	0.118676	0.179785
	C182	C	0.387086	0.120799	0.829759
	C183	C	0.619838	0.883548	0.830798
	C184	C	0.883690	0.179831	0.389318
	C185	C	0.124195	0.180123	0.619421
	C186	C	0.124254	0.825224	0.390302
	C187	C	0.884382	0.825296	0.619300
	C188	C	0.180551	0.387209	0.886112
	C189	C	0.179034	0.617868	0.121618
	C190	C	0.828370	0.386694	0.122216
	C191	C	0.827308	0.617550	0.886938
	C192	C	0.404661	0.095153	0.605849
	C193	C	0.604899	0.907207	0.607194
	C194	C	0.603106	0.095830	0.404152
	C195	C	0.403883	0.908139	0.403869
	C196	C	0.603556	0.399769	0.099971
	C197	C	0.601915	0.602952	0.910000
	C198	C	0.404605	0.602749	0.099972
	C199	C	0.406322	0.401262	0.911009
	C200	C	0.100398	0.602100	0.404858
	C201	C	0.907420	0.601890	0.602618
	C202	C	0.099594	0.403337	0.602497
	C203	C	0.907571	0.402684	0.405046
	C204	C	0.902652	0.596240	0.105978
	C205	C	0.103397	0.408690	0.105286
	C206	C	0.103437	0.596270	0.903262
	C207	C	0.904670	0.408752	0.903189
	C208	C	0.102929	0.901144	0.599675
	C209	C	0.102728	0.103128	0.410551
	C210	C	0.904928	0.104177	0.598895
	C211	C	0.904804	0.900670	0.409493
	C212	C	0.599161	0.099641	0.907221
	C213	C	0.407451	0.100644	0.103878
	C214	C	0.600444	0.901616	0.104296
	C215	C	0.406630	0.903048	0.906586
	Zn216	Zn	0.503654	0.001214	0.757659
	Zn217	Zn	0.503943	0.002098	0.253289
	Zn218	Zn	0.752461	0.501784	0.004530
	Zn219	Zn	0.254840	0.502132	0.004292
	Zn220	Zn	0.003907	0.751234	0.504649
	Zn221	Zn	0.003818	0.254439	0.504284
	Zn222	Zn	0.003336	0.502631	0.751904
	Zn223	Zn	0.003732	0.502475	0.256143
	Zn224	Zn	0.503355	0.753439	0.005073
	Zn225	Zn	0.504214	0.250015	0.005954
	Zn226	Zn	0.754860	0.002172	0.505076
	Zn227	Zn	0.253149	0.002041	0.505304
	N228	N	0.417110	0.964479	0.685593
	N229	N	0.591608	0.037766	0.686727
	N230	N	0.590198	0.964806	0.325722
	N231	N	0.416502	0.039072	0.324568
	N232	N	0.679652	0.417831	0.966571
	N233	N	0.678843	0.585097	0.042795
	N234	N	0.328631	0.585224	0.966556
	N235	N	0.328080	0.418337	0.043363
	N236	N	0.966719	0.680470	0.418793
	N237	N	0.040986	0.680005	0.590129
	N238	N	0.966284	0.325505	0.589612
	N239	N	0.041408	0.324660	0.418151
	N240	N	0.965974	0.417138	0.681057
	N241	N	0.041393	0.587014	0.680406
	N242	N	0.965937	0.587135	0.328300
	N243	N	0.041372	0.417397	0.327589
	N244	N	0.415552	0.683121	0.969135
	N245	N	0.591008	0.682480	0.041210
	N246	N	0.593334	0.318929	0.969410
	N247	N	0.416564	0.321138	0.042077
	N248	N	0.680912	0.963864	0.421324
	N249	N	0.681132	0.039692	0.589560
	N250	N	0.327644	0.963272	0.588384
	N251	N	0.326240	0.040276	0.420836
	N252	N	0.915836	0.465800	0.185376
	N253	N	0.090135	0.539399	0.184319
	N254	N	0.090900	0.465806	0.823541
	N255	N	0.916860	0.539680	0.824016
	N256	N	0.179213	0.919256	0.466647
	N257	N	0.179704	0.086017	0.543386
	N258	N	0.826999	0.087027	0.466381
	N259	N	0.829740	0.919900	0.543138
	N260	N	0.466320	0.179415	0.920166
	N261	N	0.540570	0.179182	0.091872
	N262	N	0.466405	0.823995	0.091042
	N263	N	0.540174	0.824421	0.919360
	N264	N	0.466290	0.916729	0.181710
	N265	N	0.541629	0.085698	0.180971
	N266	N	0.465483	0.086715	0.828775
	N267	N	0.540951	0.917112	0.829534
	N268	N	0.916943	0.182882	0.467226
	N269	N	0.091692	0.183333	0.541167
	N270	N	0.091848	0.821594	0.468518
	N271	N	0.916397	0.821505	0.540871
	N272	N	0.181706	0.464318	0.919749
	N273	N	0.180822	0.540633	0.088350
	N274	N	0.826401	0.463824	0.088582
	N275	N	0.826404	0.540349	0.920337
	O276	O	0.454955	0.492471	0.531674
	H277	H	0.452069	0.496187	0.534073
	H278	H	0.454824	0.485194	0.538181
	O279	O	-0.047814	0.061105	-0.006952
	H280	H	-0.045059	0.060915	-0.008332
	H281	H	-0.051700	0.064921	-0.012484
	O282	O	0.443904	0.471292	0.521502
	H283	H	0.446217	0.459901	0.524966
	H284	H	0.441975	0.481321	0.522284
	O285	O	0.536994	0.461838	0.523754
	H286	H	0.545351	0.461075	0.523429
	H287	H	0.535976	0.460610	0.518660
	O288	O	0.973919	0.063627	0.027971
	H289	H	0.958323	0.060716	0.015343
	H290	H	0.975505	0.072136	0.032445
	O291	O	-0.489343	0.451371	-0.526740
	H292	H	-0.486729	0.453640	-0.524600
	H293	H	-0.484100	0.457508	-0.526295
	O294	O	0.434342	0.474243	0.541869
	H295	H	0.431031	0.471149	0.534030
	H296	H	0.428876	0.472369	0.543603
	O297	O	0.557203	1.486587	-0.500465
	H298	H	0.554002	1.484344	-0.491390
	H299	H	0.560869	1.488248	-0.503693
	O300	O	0.969685	0.091423	1.001124
	H301	H	0.972641	0.094720	0.997366
	H302	H	0.978037	0.088549	1.009165
	O303	O	0.483534	0.489128	0.541817
	H304	H	0.480336	0.491039	0.547064
	H305	H	0.473840	0.489240	0.542488
	O306	O	0.003281	1.065976	1.023068
	H307	H	0.000269	1.066504	1.021601
	H308	H	0.005208	1.064469	1.034139
	O309	O	0.467977	0.447751	0.543192
	H310	H	0.463947	0.454136	0.536338
	H311	H	0.472438	0.432105	0.542350
