data_Molecule from HDF5

_cell_length_a		16.395917
_cell_length_b		16.238581
_cell_length_c		16.102632
_cell_angle_alpha	90.290946
_cell_angle_beta	90.416614
_cell_angle_gamma	89.504471
_symmetry_space_group_name_H-M	'P 1'
_symmetry_Int_Tables_number		1

loop_
	_symmetry_equiv_pos_as_xyz
	x,y,z

loop_
	_atom_site_label
	_atom_site_type_symbol
	_atom_site_fract_x
	_atom_site_fract_y
	_atom_site_fract_z
	H0	H	0.408335	0.832256	0.712593
	H1	H	0.606064	0.158651	0.714727
	H2	H	0.603997	0.831973	0.283893
	H3	H	0.406203	0.160336	0.284867
	H4	H	0.725738	0.390181	0.833629
	H5	H	0.727164	0.599009	0.160420
	H6	H	0.286641	0.601585	0.834622
	H7	H	0.294006	0.396335	0.160576
	H8	H	0.844356	0.714966	0.389634
	H9	H	0.166407	0.713394	0.599746
	H10	H	0.843806	0.280785	0.594432
	H11	H	0.164991	0.272209	0.391228
	H12	H	0.844314	0.397032	0.711048
	H13	H	0.166713	0.597658	0.714997
	H14	H	0.843769	0.593037	0.278253
	H15	H	0.169025	0.393265	0.282751
	H16	H	0.406483	0.710958	0.833369
	H17	H	0.609261	0.710971	0.161956
	H18	H	0.609358	0.276555	0.834099
	H19	H	0.411537	0.285760	0.161931
	H20	H	0.724213	0.833565	0.393736
	H21	H	0.724673	0.157053	0.603598
	H22	H	0.287853	0.833921	0.601511
	H23	H	0.283539	0.156658	0.391752
	H24	H	0.912538	0.330532	0.205083
	H25	H	0.104013	0.658461	0.212137
	H26	H	0.107298	0.331760	0.778982
	H27	H	0.903629	0.658876	0.779454
	H28	H	0.222345	0.891005	0.332948
	H29	H	0.226062	0.102762	0.658110
	H30	H	0.784103	0.098026	0.334188
	H31	H	0.790852	0.893555	0.660061
	H32	H	0.346628	0.217128	0.894142
	H33	H	0.669117	0.212734	0.102940
	H34	H	0.346506	0.778782	0.100140
	H35	H	0.666807	0.773682	0.894715
	H36	H	0.343745	0.899888	0.210993
	H37	H	0.668962	0.093506	0.216215
	H38	H	0.346129	0.099945	0.778358
	H39	H	0.668903	0.892120	0.780822
	H40	H	0.903252	0.207719	0.329849
	H41	H	0.105789	0.212265	0.658651
	H42	H	0.102771	0.780356	0.330774
	H43	H	0.904560	0.779280	0.659136
	H44	H	0.227293	0.334132	0.891596
	H45	H	0.223367	0.657485	0.101372
	H46	H	0.791636	0.334520	0.097751
	H47	H	0.784947	0.657124	0.891539
	H48	H	0.409175	0.110276	0.580399
	H49	H	0.597278	0.878379	0.593251
	H50	H	0.597044	0.113436	0.404860
	H51	H	0.406341	0.876436	0.403022
	H52	H	0.604225	0.407608	0.114607
	H53	H	0.596294	0.580550	0.882496
	H54	H	0.416899	0.581501	0.111525
	H55	H	0.424585	0.406635	0.882027
	H56	H	0.124049	0.585909	0.393359
	H57	H	0.894629	0.574718	0.586254
	H58	H	0.119684	0.405858	0.585223
	H59	H	0.888607	0.409180	0.389446
	H60	H	0.121483	0.401087	0.588200
	H61	H	0.885620	0.594989	0.595408
	H62	H	0.121492	0.598586	0.410004
	H63	H	0.886417	0.391307	0.397959
	H64	H	0.420140	0.592496	0.115091
	H65	H	0.593141	0.586522	0.881383
	H66	H	0.600716	0.407466	0.113749
	H67	H	0.414091	0.400755	0.877118
	H68	H	0.593504	0.110016	0.410156
	H69	H	0.596683	0.881667	0.583272
	H70	H	0.411332	0.114210	0.593341
	H71	H	0.419579	0.879408	0.400841
	H72	H	0.925935	0.611820	0.092717
	H73	H	0.102612	0.377453	0.090689
	H74	H	0.106223	0.613244	0.910929
	H75	H	0.910043	0.377265	0.902664
	H76	H	0.099939	0.908154	0.612411
	H77	H	0.096280	0.079186	0.379593
	H78	H	0.924387	0.079591	0.607798
	H79	H	0.911372	0.907046	0.379343
	H80	H	0.620710	0.083457	0.908726
	H81	H	0.393237	0.097915	0.080073
	H82	H	0.619817	0.906324	0.087622
	H83	H	0.391450	0.902420	0.905474
	H84	H	0.623269	0.903961	0.095228
	H85	H	0.393743	0.081645	0.092068
	H86	H	0.621782	0.086776	0.906990
	H87	H	0.393712	0.906241	0.908644
	H88	H	0.917833	0.102124	0.617318
	H89	H	0.090991	0.084147	0.379869
	H90	H	0.094617	0.904931	0.612337
	H91	H	0.914485	0.906817	0.379460
	H92	H	0.093778	0.613705	0.897264
	H93	H	0.101966	0.379109	0.083742
	H94	H	0.915739	0.608203	0.074343
	H95	H	0.921712	0.379849	0.899628
	H96	H	0.421637	0.108970	0.586053
	H97	H	0.605662	0.878400	0.587070
	H98	H	0.599963	0.112926	0.410939
	H99	H	0.414056	0.881728	0.412966
	H100	H	0.601520	0.404532	0.115032
	H101	H	0.599670	0.586077	0.880163
	H102	H	0.409576	0.588896	0.117081
	H103	H	0.413433	0.413882	0.879656
	H104	H	0.116386	0.578167	0.411212
	H105	H	0.892863	0.594112	0.573015
	H106	H	0.120055	0.400844	0.582419
	H107	H	0.892828	0.406682	0.408247
	H108	H	0.905066	0.617636	0.091071
	H109	H	0.108199	0.376794	0.086425
	H110	H	0.089890	0.606107	0.913534
	H111	H	0.917871	0.381941	0.911309
	H112	H	0.099786	0.902363	0.615172
	H113	H	0.097229	0.084813	0.377958
	H114	H	0.901414	0.083034	0.615820
	H115	H	0.912359	0.903875	0.377825
	H116	H	0.621595	0.086309	0.911405
	H117	H	0.386884	0.099094	0.099199
	H118	H	0.622796	0.898625	0.088551
	H119	H	0.392209	0.906726	0.903539
	C120	C	0.384935	0.004062	0.617595
	C121	C	0.629175	0.986570	0.619868
	C122	C	0.626892	0.004426	0.377367
	C123	C	0.383138	0.986819	0.375349
	C124	C	0.631073	0.374547	0.006119
	C125	C	0.627962	0.615641	0.989241
	C126	C	0.384796	0.618546	0.006568
	C127	C	0.388333	0.377392	0.988008
	C128	C	0.013920	0.617121	0.373176
	C129	C	0.997172	0.617889	0.616610
	C130	C	0.013950	0.373955	0.615438
	C131	C	0.996805	0.371920	0.371311
	C132	C	0.887268	0.504223	0.115759
	C133	C	0.130795	0.485927	0.118052
	C134	C	0.128252	0.504106	0.874917
	C135	C	0.884919	0.487325	0.873954
	C136	C	0.126736	0.874294	0.504826
	C137	C	0.125977	0.115407	0.486556
	C138	C	0.883146	0.117487	0.505032
	C139	C	0.884204	0.875180	0.487353
	C140	C	0.515391	0.117807	0.876773
	C141	C	0.498465	0.120214	0.121343
	C142	C	0.515088	0.874168	0.119805
	C143	C	0.498820	0.873603	0.875852
	C144	C	0.387436	0.881466	0.674653
	C145	C	0.626955	0.109445	0.677135
	C146	C	0.624747	0.881209	0.320821
	C147	C	0.385163	0.110542	0.320838
	C148	C	0.687226	0.371984	0.882815
	C149	C	0.687210	0.617006	0.111931
	C150	C	0.326277	0.619774	0.883548
	C151	C	0.332313	0.377792	0.111533
	C152	C	0.892522	0.674791	0.371693
	C153	C	0.118189	0.674932	0.618133
	C154	C	0.892393	0.318390	0.614810
	C155	C	0.117519	0.312346	0.372373
	C156	C	0.892646	0.376576	0.672682
	C157	C	0.118422	0.616816	0.675341
	C158	C	0.892331	0.614518	0.315705
	C159	C	0.119592	0.372861	0.318445
	C160	C	0.385725	0.674574	0.882887
	C161	C	0.628662	0.673021	0.112507
	C162	C	0.629283	0.315659	0.883062
	C163	C	0.390606	0.322478	0.112323
	C164	C	0.684485	0.882046	0.375651
	C165	C	0.685880	0.108647	0.621667
	C166	C	0.327707	0.882229	0.619057
	C167	C	0.324014	0.108638	0.374060
	C168	C	0.891057	0.380564	0.169495
	C169	C	0.126342	0.609165	0.174988
	C170	C	0.127688	0.381237	0.817014
	C171	C	0.884401	0.609862	0.817520
	C172	C	0.183239	0.873212	0.381515
	C173	C	0.185358	0.119116	0.609447
	C174	C	0.823916	0.117030	0.382484
	C175	C	0.828884	0.874872	0.610814
	C176	C	0.394754	0.177581	0.875389
	C177	C	0.620519	0.174537	0.121839
	C178	C	0.394457	0.817466	0.119278
	C179	C	0.619349	0.814071	0.875949
	C180	C	0.392765	0.877903	0.174426
	C181	C	0.620411	0.115193	0.178355
	C182	C	0.394279	0.118940	0.817813
	C183	C	0.620163	0.872884	0.818945
	C184	C	0.883484	0.171500	0.380380
	C185	C	0.125974	0.174153	0.609777
	C186	C	0.124051	0.817983	0.380465
	C187	C	0.885643	0.818004	0.610314
	C188	C	0.187496	0.382277	0.872876
	C189	C	0.185306	0.608872	0.119416
	C190	C	0.831228	0.382195	0.115641
	C191	C	0.825084	0.608855	0.873054
	C192	C	0.407325	0.089110	0.593705
	C193	C	0.606490	0.901496	0.595031
	C194	C	0.603640	0.089957	0.401395
	C195	C	0.406537	0.901404	0.398644
	C196	C	0.608689	0.399262	0.092061
	C197	C	0.603502	0.591336	0.903574
	C198	C	0.408602	0.594657	0.092310
	C199	C	0.410621	0.400366	0.901905
	C200	C	0.098757	0.594280	0.397759
	C201	C	0.912872	0.594868	0.592003
	C202	C	0.098358	0.396104	0.592070
	C203	C	0.911651	0.395285	0.392528
	C204	C	0.909166	0.590281	0.092784
	C205	C	0.110272	0.400261	0.094150
	C206	C	0.103915	0.588907	0.899929
	C207	C	0.909383	0.401849	0.897676
	C208	C	0.104599	0.898136	0.590846
	C209	C	0.101797	0.089912	0.401362
	C210	C	0.907360	0.094744	0.591196
	C211	C	0.906436	0.899064	0.401111
	C212	C	0.599458	0.092963	0.901857
	C213	C	0.413454	0.099161	0.097419
	C214	C	0.599983	0.896413	0.097030
	C215	C	0.414358	0.898161	0.899131
	Zn216	Zn	0.507157	-0.004331	0.746981
	Zn217	Zn	0.505593	-0.003908	0.248979
	Zn218	Zn	0.758001	0.495694	-0.003447
	Zn219	Zn	0.258388	0.496101	-0.003691
	Zn220	Zn	0.004764	0.746862	0.495490
	Zn221	Zn	0.004704	0.244170	0.493918
	Zn222	Zn	0.005869	0.496185	0.745763
	Zn223	Zn	0.007430	0.493992	0.244037
	Zn224	Zn	0.507050	0.744465	-0.001990
	Zn225	Zn	0.508250	0.248719	-0.001720
	Zn226	Zn	0.756373	-0.004713	0.497971
	Zn227	Zn	0.255077	-0.004783	0.496510
	N228	N	0.422267	0.958206	0.674116
	N229	N	0.592318	0.032674	0.675996
	N230	N	0.589553	0.958328	0.321784
	N231	N	0.421139	0.033665	0.321363
	N232	N	0.688193	0.408216	0.960105
	N233	N	0.686833	0.581863	0.034189
	N234	N	0.325375	0.585839	0.961523
	N235	N	0.330667	0.411150	0.033032
	N236	N	0.969201	0.676545	0.406894
	N237	N	0.041678	0.675879	0.582199
	N238	N	0.968694	0.316687	0.579995
	N239	N	0.040135	0.311767	0.404623
	N240	N	0.969229	0.410367	0.673406
	N241	N	0.042262	0.582373	0.674585
	N242	N	0.968945	0.579374	0.316651
	N243	N	0.043625	0.409136	0.317461
	N244	N	0.421324	0.673929	0.960510
	N245	N	0.592288	0.672062	0.035380
	N246	N	0.595207	0.317001	0.960882
	N247	N	0.424882	0.322243	0.034768
	N248	N	0.685918	0.959670	0.410256
	N249	N	0.687519	0.031142	0.586797
	N250	N	0.325941	0.959440	0.584301
	N251	N	0.322725	0.030922	0.407486
	N252	N	0.925344	0.457508	0.169363
	N253	N	0.093501	0.531782	0.174489
	N254	N	0.091619	0.458008	0.818017
	N255	N	0.920774	0.533214	0.818079
	N256	N	0.185292	0.907289	0.459906
	N257	N	0.185460	0.083098	0.531973
	N258	N	0.823506	0.084056	0.461030
	N259	N	0.827883	0.909713	0.533112
	N260	N	0.471033	0.176856	0.911521
	N261	N	0.543774	0.177979	0.087196
	N262	N	0.471539	0.815175	0.085975
	N263	N	0.543033	0.814469	0.910489
	N264	N	0.468873	0.912407	0.174882
	N265	N	0.543416	0.082198	0.178341
	N266	N	0.470323	0.082603	0.818479
	N267	N	0.544169	0.909465	0.818986
	N268	N	0.919453	0.172093	0.457793
	N269	N	0.089610	0.172012	0.532594
	N270	N	0.089752	0.818417	0.458205
	N271	N	0.919419	0.818136	0.532495
	N272	N	0.188128	0.459656	0.908175
	N273	N	0.188285	0.531372	0.084490
	N274	N	0.828790	0.460254	0.082977
	N275	N	0.825442	0.531503	0.907662
	O276	O	0.002272	-0.142808	0.140371
	H277	H	-0.010897	-0.143833	0.139452
	H278	H	0.001263	-0.136357	0.133246
	O279	O	0.531175	0.354403	0.496462
	H280	H	0.517755	0.368869	0.515533
	H281	H	0.528126	0.344595	0.491293
	O282	O	1.168727	0.038355	-0.096450
	H283	H	1.184122	0.036596	-0.111337
	H284	H	1.158688	0.037776	-0.075148
	O285	O	-0.122741	1.023133	-0.068085
	H286	H	-0.120597	1.016449	-0.065273
	H287	H	-0.118684	1.019608	-0.069095
	O288	O	0.529791	0.612164	0.434630
	H289	H	0.541392	0.612056	0.433458
	H290	H	0.541779	0.606991	0.442263
	O291	O	0.569950	0.353580	0.384997
	H292	H	0.582774	0.367004	0.373617
	H293	H	0.569534	0.349905	0.380473
	O294	O	0.542737	1.528690	0.585711
	H295	H	0.545701	1.531435	0.571837
	H296	H	0.541596	1.528029	0.588330
	O297	O	0.485141	-0.548373	-0.446424
	H298	H	0.466196	-0.541839	-0.444892
	H299	H	0.492694	-0.556689	-0.447027
	O300	O	0.388924	0.438795	0.610555
	H301	H	0.376476	0.451632	0.596235
	H302	H	0.387321	0.433814	0.601793
	O303	O	0.127231	0.819594	0.849842
	H304	H	0.117692	0.830116	0.843426
	H305	H	0.120058	0.817878	0.855141
	O306	O	-0.588043	1.577164	0.312434
	H307	H	-0.594751	1.574685	0.312214
	H308	H	-0.566645	1.570383	0.308820
	O309	O	0.911029	-0.005468	0.118912
	H310	H	0.905250	-0.013185	0.114738
	H311	H	0.919246	-0.006816	0.121487
	O312	O	-0.009157	0.047784	0.896572
	H313	H	-0.006975	0.053171	0.911110
	H314	H	-0.005671	0.039491	0.895943
	O315	O	0.139548	1.080021	1.059759
	H316	H	0.142554	1.081673	1.056229
	H317	H	0.145889	1.070494	1.061480
	O318	O	0.433019	0.449799	0.442995
	H319	H	0.435853	0.449300	0.447084
	H320	H	0.437449	0.459353	0.432211
	O321	O	0.701575	0.529482	0.510237
	H322	H	0.711148	0.523555	0.514828
	H323	H	0.695574	0.530765	0.516140
	O324	O	0.564123	0.387370	0.630738
	H325	H	0.546593	0.398739	0.633472
	H326	H	0.566702	0.381066	0.630229
	O327	O	-0.113135	1.133061	0.876975
	H328	H	-0.114524	1.134012	0.865212
	H329	H	-0.120175	1.157044	0.876214
	O330	O	0.495348	0.540642	0.453785
	H331	H	0.483043	0.534781	0.450724
	H332	H	0.502664	0.532167	0.460630
	O333	O	0.092475	0.956082	0.891213
	H334	H	0.083465	0.951739	0.883885
	H335	H	0.092155	0.959270	0.903567
	O336	O	0.913137	1.004845	1.112053
	H337	H	0.912640	0.997796	1.119356
	H338	H	0.926912	1.005950	1.106432
	O339	O	0.329360	0.637041	0.439941
	H340	H	0.317865	0.640050	0.439058
	H341	H	0.327395	0.632190	0.427113
	O342	O	1.176918	-0.154781	-0.100680
	H343	H	1.194169	-0.164376	-0.108547
	H344	H	1.167591	-0.150366	-0.119839
	O345	O	0.602388	0.599697	0.590695
	H346	H	0.608532	0.599489	0.594938
	H347	H	0.603555	0.589509	0.591893
	O348	O	1.102525	1.071908	1.031678
	H349	H	1.099076	1.067067	1.031558
	H350	H	1.091501	1.066917	1.037307
	O351	O	1.053815	1.135000	-0.120420
	H352	H	1.057372	1.128214	-0.120158
	H353	H	1.040516	1.140699	-0.114709
	O354	O	0.464133	0.411806	0.616197
	H355	H	0.463385	0.418066	0.620305
	H356	H	0.465179	0.408724	0.609582
	O357	O	0.545459	0.524397	0.478750
	H358	H	0.547573	0.518192	0.482056
	H359	H	0.544246	0.519197	0.482974
	O360	O	-0.076027	0.024152	-0.123190
	H361	H	-0.071718	0.026638	-0.116658
	H362	H	-0.080389	0.023282	-0.138387
	O363	O	0.429100	0.552233	0.573632
	H364	H	0.435716	0.550140	0.579698
	H365	H	0.433176	0.565721	0.566930
	O366	O	-0.018358	-0.014526	1.049378
	H367	H	-0.025853	-0.010314	1.050606
	H368	H	-0.010729	-0.013524	1.051892
	O369	O	0.649324	0.574044	0.560681
	H370	H	0.635032	0.571470	0.557785
	H371	H	0.650309	0.563775	0.558985
	O372	O	0.575684	0.400934	0.405377
	H373	H	0.581196	0.404197	0.403123
	H374	H	0.581732	0.401047	0.403131
	O375	O	0.521226	0.314263	0.476864
	H376	H	0.525125	0.310622	0.476697
	H377	H	0.518800	0.311745	0.475729
	O378	O	0.394626	0.539039	0.451676
	H379	H	0.388768	0.536562	0.453597
	H380	H	0.399432	0.530222	0.458305
	O381	O	0.427570	0.542496	0.415452
	H382	H	0.431142	0.549784	0.413424
	H383	H	0.423673	0.543524	0.416683
	O384	O	-0.162180	0.887621	0.080987
	H385	H	-0.157193	0.896244	0.079010
	H386	H	-0.159679	0.897007	0.066146
	O387	O	0.861957	0.022229	0.965192
	H388	H	0.864196	0.025299	0.965930
	H389	H	0.844632	0.025966	0.965357
	O390	O	0.104327	0.898076	0.104001
	H391	H	0.115886	0.894419	0.108793
	H392	H	0.093706	0.885983	0.089543
	O393	O	1.019481	1.060965	0.130577
	H394	H	1.027006	1.054838	0.130525
	H395	H	1.025132	1.064137	0.141264
	O396	O	0.955202	0.051526	0.960020
	H397	H	0.965545	0.042274	0.964058
	H398	H	0.968075	0.047711	0.973260
	O399	O	0.081701	0.823727	0.975045
	H400	H	0.080335	0.815486	0.973932
	H401	H	0.078826	0.829379	0.972178
	O402	O	0.986442	1.059054	1.034309
	H403	H	0.980058	1.060504	1.034369
	H404	H	0.993365	1.069307	1.029523
	O405	O	0.472893	0.574198	0.431272
	H406	H	0.470853	0.585950	0.426157
	H407	H	0.482673	0.577482	0.420724
