data_Molecule from HDF5

_cell_length_a		16.301787
_cell_length_b		16.178386
_cell_length_c		16.235648
_cell_angle_alpha	90.004393
_cell_angle_beta	89.991456
_cell_angle_gamma	90.068677
_symmetry_space_group_name_H-M	'P 1'
_symmetry_Int_Tables_number		1

loop_
	_symmetry_equiv_pos_as_xyz
	x,y,z

loop_
	_atom_site_label
	_atom_site_type_symbol
	_atom_site_fract_x
	_atom_site_fract_y
	_atom_site_fract_z
	H0	H	0.402541	0.835238	0.711368
	H1	H	0.596921	0.165449	0.712197
	H2	H	0.596199	0.835372	0.286937
	H3	H	0.403087	0.165403	0.287151
	H4	H	0.715527	0.401052	0.836482
	H5	H	0.714748	0.598444	0.164644
	H6	H	0.285651	0.598143	0.836384
	H7	H	0.285021	0.399814	0.163898
	H8	H	0.835758	0.713687	0.401691
	H9	H	0.163561	0.713972	0.596750
	H10	H	0.835014	0.286920	0.596866
	H11	H	0.164478	0.286359	0.403008
	H12	H	0.835877	0.402367	0.713626
	H13	H	0.163991	0.598814	0.714697
	H14	H	0.836379	0.598097	0.285699
	H15	H	0.163614	0.402289	0.285916
	H16	H	0.403583	0.711690	0.834959
	H17	H	0.597588	0.712663	0.165042
	H18	H	0.596745	0.288795	0.834977
	H19	H	0.403534	0.286963	0.164767
	H20	H	0.712836	0.835560	0.401014
	H21	H	0.713278	0.164932	0.597178
	H22	H	0.285785	0.835191	0.596674
	H23	H	0.287999	0.165730	0.403223
	H24	H	0.902981	0.335460	0.212455
	H25	H	0.098053	0.664924	0.213886
	H26	H	0.097152	0.334642	0.787759
	H27	H	0.904604	0.665472	0.788309
	H28	H	0.213336	0.902152	0.335106
	H29	H	0.213100	0.098279	0.663852
	H30	H	0.786214	0.097589	0.335435
	H31	H	0.783978	0.900061	0.663503
	H32	H	0.336142	0.213028	0.902880
	H33	H	0.664282	0.213144	0.097103
	H34	H	0.336235	0.786110	0.096835
	H35	H	0.663293	0.786088	0.901861
	H36	H	0.335670	0.902311	0.213275
	H37	H	0.663588	0.097652	0.214580
	H38	H	0.336440	0.097886	0.786232
	H39	H	0.663033	0.901684	0.785383
	H40	H	0.904187	0.211502	0.334529
	H41	H	0.095126	0.210586	0.664884
	H42	H	0.096229	0.787756	0.335059
	H43	H	0.904120	0.788622	0.665301
	H44	H	0.214220	0.335202	0.901749
	H45	H	0.215372	0.664272	0.099553
	H46	H	0.785930	0.335788	0.098308
	H47	H	0.787580	0.665143	0.902882
	H48	H	0.412195	0.116867	0.593073
	H49	H	0.602684	0.879835	0.589992
	H50	H	0.599582	0.120908	0.404555
	H51	H	0.401057	0.881671	0.407012
	H52	H	0.596094	0.397803	0.120772
	H53	H	0.596348	0.592685	0.882480
	H54	H	0.402869	0.579636	0.114585
	H55	H	0.405412	0.410262	0.883227
	H56	H	0.117418	0.591685	0.400848
	H57	H	0.887021	0.584133	0.590655
	H58	H	0.118764	0.399268	0.593198
	H59	H	0.882287	0.403098	0.404795
	H60	H	0.114568	0.408829	0.590237
	H61	H	0.880252	0.593923	0.604788
	H62	H	0.118366	0.599583	0.408117
	H63	H	0.884215	0.407007	0.409751
	H64	H	0.419558	0.598406	0.115218
	H65	H	0.593492	0.592358	0.883456
	H66	H	0.601018	0.412700	0.117801
	H67	H	0.410140	0.406292	0.883796
	H68	H	0.589148	0.118119	0.402094
	H69	H	0.589552	0.880026	0.602840
	H70	H	0.403080	0.117687	0.587838
	H71	H	0.407037	0.881830	0.401860
	H72	H	0.909063	0.617553	0.095071
	H73	H	0.087100	0.381284	0.103652
	H74	H	0.096803	0.619630	0.904751
	H75	H	0.893694	0.380434	0.914231
	H76	H	0.095849	0.905052	0.618591
	H77	H	0.099797	0.095014	0.379675
	H78	H	0.913535	0.099545	0.616709
	H79	H	0.906072	0.902455	0.381509
	H80	H	0.618580	0.093670	0.902478
	H81	H	0.382794	0.097327	0.091544
	H82	H	0.616780	0.910401	0.097950
	H83	H	0.379043	0.893294	0.906664
	H84	H	0.618509	0.901436	0.095723
	H85	H	0.384258	0.090130	0.092717
	H86	H	0.617732	0.096627	0.906888
	H87	H	0.387164	0.912059	0.916542
	H88	H	0.896578	0.096566	0.620749
	H89	H	0.093460	0.088085	0.384040
	H90	H	0.094407	0.909989	0.616347
	H91	H	0.901862	0.908007	0.381710
	H92	H	0.089810	0.616305	0.906694
	H93	H	0.089415	0.386851	0.083745
	H94	H	0.906714	0.617644	0.090593
	H95	H	0.908687	0.378635	0.892803
	H96	H	0.402908	0.120798	0.598787
	H97	H	0.586065	0.886727	0.585192
	H98	H	0.592212	0.115990	0.412052
	H99	H	0.408661	0.883531	0.409335
	H100	H	0.586097	0.409146	0.114348
	H101	H	0.594125	0.595835	0.883036
	H102	H	0.396477	0.601887	0.122652
	H103	H	0.404462	0.403942	0.881422
	H104	H	0.113258	0.589817	0.411376
	H105	H	0.882145	0.602127	0.588926
	H106	H	0.118204	0.407136	0.600032
	H107	H	0.883271	0.409246	0.403857
	H108	H	0.903824	0.620003	0.094049
	H109	H	0.104861	0.379137	0.094104
	H110	H	0.095762	0.616631	0.911857
	H111	H	0.918302	0.388196	0.915000
	H112	H	0.090889	0.906267	0.616695
	H113	H	0.090570	0.097504	0.381571
	H114	H	0.907005	0.083151	0.614207
	H115	H	0.908282	0.908514	0.384368
	H116	H	0.615646	0.091810	0.906982
	H117	H	0.382022	0.094178	0.098399
	H118	H	0.615714	0.907640	0.088924
	H119	H	0.381370	0.912870	0.894355
	C120	C	0.378185	0.008845	0.620947
	C121	C	0.620868	0.991448	0.620692
	C122	C	0.621111	0.009016	0.378450
	C123	C	0.378143	0.991793	0.378469
	C124	C	0.621997	0.378530	0.008628
	C125	C	0.622371	0.621537	0.992035
	C126	C	0.378777	0.621290	0.008609
	C127	C	0.378523	0.378303	0.991662
	C128	C	0.008232	0.621884	0.378144
	C129	C	0.991559	0.621713	0.622332
	C130	C	0.008059	0.377854	0.621792
	C131	C	0.991608	0.378317	0.378256
	C132	C	0.878921	0.508954	0.121001
	C133	C	0.121916	0.491573	0.121876
	C134	C	0.122021	0.508415	0.879270
	C135	C	0.878987	0.491555	0.879355
	C136	C	0.121426	0.878735	0.508267
	C137	C	0.121778	0.121690	0.490831
	C138	C	0.878146	0.121249	0.508283
	C139	C	0.877690	0.878066	0.491530
	C140	C	0.508757	0.121649	0.878003
	C141	C	0.491728	0.121719	0.121832
	C142	C	0.508348	0.878353	0.121724
	C143	C	0.490957	0.877692	0.877872
	C144	C	0.381380	0.884414	0.674804
	C145	C	0.617955	0.115965	0.675040
	C146	C	0.617232	0.884386	0.324415
	C147	C	0.382173	0.116193	0.324795
	C148	C	0.676851	0.381149	0.885157
	C149	C	0.676614	0.618572	0.115765
	C150	C	0.324001	0.618416	0.885103
	C151	C	0.323922	0.380752	0.115308
	C152	C	0.884590	0.675762	0.381353
	C153	C	0.114836	0.676426	0.618527
	C154	C	0.884259	0.324122	0.617936
	C155	C	0.115295	0.323713	0.381781
	C156	C	0.884603	0.381519	0.675941
	C157	C	0.115023	0.619133	0.676803
	C158	C	0.885007	0.618658	0.323582
	C159	C	0.115060	0.381144	0.323548
	C160	C	0.382432	0.674897	0.884371
	C161	C	0.618437	0.675412	0.115931
	C162	C	0.618218	0.324897	0.884395
	C163	C	0.382235	0.324079	0.115592
	C164	C	0.675091	0.884650	0.381029
	C165	C	0.675541	0.115793	0.617788
	C166	C	0.323287	0.884658	0.617838
	C167	C	0.324603	0.116348	0.382074
	C168	C	0.881980	0.384565	0.175207
	C169	C	0.118841	0.615958	0.176083
	C170	C	0.118445	0.383982	0.824798
	C171	C	0.882895	0.616151	0.825404
	C172	C	0.175635	0.881507	0.384218
	C173	C	0.175705	0.118828	0.614817
	C174	C	0.823835	0.118403	0.384568
	C175	C	0.822706	0.880355	0.614794
	C176	C	0.385094	0.175552	0.882022
	C177	C	0.615343	0.175788	0.118339
	C178	C	0.384949	0.823972	0.117773
	C179	C	0.614672	0.824023	0.881589
	C180	C	0.384644	0.881493	0.175483
	C181	C	0.615206	0.118420	0.176320
	C182	C	0.384987	0.118198	0.824189
	C183	C	0.614378	0.880847	0.823294
	C184	C	0.882183	0.175199	0.384028
	C185	C	0.116964	0.174594	0.615146
	C186	C	0.117582	0.824654	0.384184
	C187	C	0.881773	0.824463	0.615677
	C188	C	0.176423	0.384225	0.881541
	C189	C	0.177175	0.615422	0.119587
	C190	C	0.823960	0.384866	0.118641
	C191	C	0.824696	0.615730	0.882039
	C192	C	0.399700	0.095927	0.599746
	C193	C	0.599213	0.904822	0.599181
	C194	C	0.599773	0.095780	0.399948
	C195	C	0.399191	0.904740	0.399930
	C196	C	0.600694	0.400078	0.095275
	C197	C	0.601168	0.600037	0.905422
	C198	C	0.399964	0.599774	0.095095
	C199	C	0.400132	0.400556	0.905214
	C200	C	0.094184	0.600235	0.400076
	C201	C	0.905309	0.599931	0.601020
	C202	C	0.094706	0.399049	0.600826
	C203	C	0.905464	0.400194	0.399638
	C204	C	0.900353	0.595920	0.099596
	C205	C	0.100134	0.404797	0.100203
	C206	C	0.100422	0.594997	0.901221
	C207	C	0.900553	0.404923	0.900813
	C208	C	0.100152	0.900667	0.594837
	C209	C	0.101048	0.099831	0.403936
	C210	C	0.899474	0.099510	0.595030
	C211	C	0.899104	0.899813	0.404851
	C212	C	0.594951	0.100290	0.899091
	C213	C	0.405249	0.100103	0.100578
	C214	C	0.594725	0.900230	0.100540
	C215	C	0.404816	0.899502	0.899361
	Zn216	Zn	0.499735	0.000127	0.749311
	Zn217	Zn	0.499833	-0.000050	0.250347
	Zn218	Zn	0.750697	0.500082	0.000288
	Zn219	Zn	0.250097	0.499836	0.000580
	Zn220	Zn	-0.000599	0.750341	0.499762
	Zn221	Zn	-0.000021	0.249181	0.499833
	Zn222	Zn	0.000409	0.499499	0.751191
	Zn223	Zn	-0.000380	0.500665	0.249422
	Zn224	Zn	0.500418	0.749699	0.000160
	Zn225	Zn	0.500353	0.250131	-0.000026
	Zn226	Zn	0.749457	0.000059	0.499598
	Zn227	Zn	0.249828	0.000508	0.499494
	N228	N	0.414856	0.962541	0.676637
	N229	N	0.584741	0.037777	0.677193
	N230	N	0.584484	0.962644	0.322674
	N231	N	0.415032	0.037883	0.322814
	N232	N	0.679429	0.413863	0.963389
	N233	N	0.678977	0.585774	0.037698
	N234	N	0.321480	0.585902	0.963328
	N235	N	0.321371	0.413491	0.037103
	N236	N	0.962035	0.677805	0.414743
	N237	N	0.037216	0.677935	0.585145
	N238	N	0.962131	0.321580	0.585198
	N239	N	0.037740	0.322050	0.415199
	N240	N	0.962528	0.414460	0.678177
	N241	N	0.037307	0.585923	0.679384
	N242	N	0.962789	0.585690	0.321618
	N243	N	0.037449	0.414676	0.321472
	N244	N	0.415849	0.676757	0.962178
	N245	N	0.585272	0.677203	0.038055
	N246	N	0.584756	0.323274	0.962186
	N247	N	0.415772	0.322639	0.037896
	N248	N	0.677830	0.963101	0.413779
	N249	N	0.677562	0.037532	0.584782
	N250	N	0.321111	0.963036	0.585170
	N251	N	0.322147	0.037912	0.414788
	N252	N	0.915503	0.462733	0.176743
	N253	N	0.085347	0.537918	0.177833
	N254	N	0.085184	0.462224	0.823290
	N255	N	0.916008	0.538074	0.823671
	N256	N	0.178110	0.914420	0.462330
	N257	N	0.178612	0.086461	0.536505
	N258	N	0.821347	0.085546	0.462779
	N259	N	0.820012	0.912785	0.536506
	N260	N	0.462780	0.177652	0.914908
	N261	N	0.537607	0.177855	0.085360
	N262	N	0.462959	0.821758	0.085344
	N263	N	0.536935	0.821892	0.914621
	N264	N	0.462306	0.914823	0.177910
	N265	N	0.537341	0.085539	0.178517
	N266	N	0.462900	0.085486	0.821475
	N267	N	0.536576	0.913743	0.820937
	N268	N	0.915470	0.176723	0.461833
	N269	N	0.084121	0.176295	0.537102
	N270	N	0.084497	0.822670	0.462226
	N271	N	0.915425	0.823126	0.537947
	N272	N	0.178899	0.462435	0.914456
	N273	N	0.178995	0.537167	0.086447
	N274	N	0.822111	0.463173	0.085845
	N275	N	0.822300	0.537336	0.914935
