data_Molecule from HDF5

_cell_length_a		16.657704
_cell_length_b		16.508848
_cell_length_c		16.525060
_cell_angle_alpha	90.050914
_cell_angle_beta	89.972023
_cell_angle_gamma	89.876728
_symmetry_space_group_name_H-M	'P 1'
_symmetry_Int_Tables_number		1

loop_
	_symmetry_equiv_pos_as_xyz
	x,y,z

loop_
	_atom_site_label
	_atom_site_type_symbol
	_atom_site_fract_x
	_atom_site_fract_y
	_atom_site_fract_z
	H0	H	0.391508	0.840931	0.693287
	H1	H	0.596509	0.157157	0.694010
	H2	H	0.596304	0.840817	0.257222
	H3	H	0.388709	0.156166	0.252035
	H4	H	0.715715	0.393477	0.818005
	H5	H	0.716826	0.606774	0.129041
	H6	H	0.272975	0.605306	0.818018
	H7	H	0.272808	0.394267	0.132071
	H8	H	0.836807	0.718627	0.373636
	H9	H	0.149335	0.723359	0.582482
	H10	H	0.840323	0.276378	0.581257
	H11	H	0.149809	0.277003	0.368757
	H12	H	0.838784	0.394544	0.696296
	H13	H	0.148772	0.606816	0.699206
	H14	H	0.836828	0.601965	0.255985
	H15	H	0.149345	0.392839	0.250998
	H16	H	0.390949	0.718873	0.816879
	H17	H	0.596980	0.720209	0.130298
	H18	H	0.598860	0.278121	0.818138
	H19	H	0.390904	0.279794	0.132025
	H20	H	0.714687	0.841935	0.371357
	H21	H	0.714858	0.157034	0.580513
	H22	H	0.274283	0.842034	0.578966
	H23	H	0.270567	0.155412	0.366363
	H24	H	0.890142	0.342147	0.195433
	H25	H	0.094815	0.658167	0.192750
	H26	H	0.096474	0.342486	0.755527
	H27	H	0.889748	0.655607	0.754543
	H28	H	0.214176	0.894690	0.317475
	H29	H	0.219243	0.108137	0.628653
	H30	H	0.775129	0.104029	0.316748
	H31	H	0.775825	0.898061	0.632665
	H32	H	0.338272	0.222477	0.868608
	H33	H	0.650322	0.221959	0.080108
	H34	H	0.339004	0.779081	0.078942
	H35	H	0.650217	0.778010	0.870472
	H36	H	0.339732	0.895433	0.196607
	H37	H	0.651673	0.104476	0.195594
	H38	H	0.338513	0.106398	0.750928
	H39	H	0.650586	0.895117	0.754045
	H40	H	0.892726	0.218941	0.316722
	H41	H	0.100883	0.222195	0.630355
	H42	H	0.095852	0.780112	0.317617
	H43	H	0.894466	0.783325	0.633959
	H44	H	0.214482	0.342949	0.870474
	H45	H	0.213906	0.656504	0.079720
	H46	H	0.771861	0.342743	0.081366
	H47	H	0.772388	0.655646	0.870923
	H48	H	0.407691	0.110798	0.562847
	H49	H	0.584035	0.887148	0.564002
	H50	H	0.584375	0.114401	0.381390
	H51	H	0.403365	0.887394	0.387399
	H52	H	0.582182	0.409086	0.087268
	H53	H	0.582117	0.586469	0.861792
	H54	H	0.408345	0.593188	0.087602
	H55	H	0.407172	0.414532	0.865151
	H56	H	0.104661	0.585286	0.382621
	H57	H	0.886235	0.586291	0.558250
	H58	H	0.106956	0.410655	0.566410
	H59	H	0.883195	0.410566	0.385632
	H60	H	0.105040	0.409347	0.561052
	H61	H	0.882113	0.585546	0.571327
	H62	H	0.108191	0.592240	0.379504
	H63	H	0.883353	0.409563	0.384766
	H64	H	0.397389	0.590603	0.089308
	H65	H	0.583829	0.587195	0.861611
	H66	H	0.585637	0.412434	0.087523
	H67	H	0.405114	0.405399	0.860720
	H68	H	0.582550	0.111737	0.388025
	H69	H	0.585612	0.886871	0.561513
	H70	H	0.405125	0.110930	0.559734
	H71	H	0.404907	0.886392	0.384150
	H72	H	0.906065	0.610167	0.061921
	H73	H	0.085182	0.385377	0.066327
	H74	H	0.080264	0.610575	0.890493
	H75	H	0.907010	0.387655	0.888726
	H76	H	0.085128	0.913260	0.586983
	H77	H	0.080869	0.084968	0.364162
	H78	H	0.907969	0.088193	0.585341
	H79	H	0.906388	0.910930	0.363047
	H80	H	0.600637	0.077588	0.886728
	H81	H	0.384933	0.081277	0.067510
	H82	H	0.609563	0.904432	0.067889
	H83	H	0.381549	0.906207	0.884404
	H84	H	0.605563	0.908780	0.058673
	H85	H	0.381023	0.093788	0.067355
	H86	H	0.608879	0.090599	0.875688
	H87	H	0.383319	0.911549	0.885533
	H88	H	0.903957	0.091972	0.588963
	H89	H	0.081114	0.089131	0.362469
	H90	H	0.083546	0.911104	0.587575
	H91	H	0.903100	0.904567	0.359731
	H92	H	0.087805	0.614005	0.887747
	H93	H	0.080569	0.387607	0.063205
	H94	H	0.899905	0.613021	0.062784
	H95	H	0.901589	0.385374	0.887992
	H96	H	0.404785	0.112453	0.563357
	H97	H	0.586435	0.886446	0.564156
	H98	H	0.589663	0.113379	0.386838
	H99	H	0.406395	0.888582	0.386804
	H100	H	0.581804	0.413550	0.085428
	H101	H	0.583187	0.585536	0.861777
	H102	H	0.404351	0.582914	0.084604
	H103	H	0.398159	0.412927	0.860715
	H104	H	0.105889	0.591803	0.388034
	H105	H	0.880615	0.597047	0.564283
	H106	H	0.104454	0.414682	0.563079
	H107	H	0.883129	0.409706	0.386261
	H108	H	0.904573	0.613211	0.067129
	H109	H	0.085622	0.387494	0.060375
	H110	H	0.080934	0.614010	0.882156
	H111	H	0.905367	0.385511	0.883900
	H112	H	0.085859	0.910804	0.588576
	H113	H	0.085100	0.086054	0.362358
	H114	H	0.902287	0.086278	0.587357
	H115	H	0.899330	0.911006	0.360176
	H116	H	0.604264	0.094623	0.893779
	H117	H	0.386757	0.089005	0.056847
	H118	H	0.605954	0.914539	0.067776
	H119	H	0.381241	0.910239	0.880737
	C120	C	0.373534	0.007569	0.594657
	C121	C	0.615878	0.991013	0.595515
	C122	C	0.616279	0.008331	0.354103
	C123	C	0.372792	0.991138	0.352867
	C124	C	0.615107	0.378876	-0.016819
	C125	C	0.615019	0.619672	0.965015
	C126	C	0.372099	0.620817	-0.016774
	C127	C	0.372175	0.378537	0.966110
	C128	C	0.002273	0.621119	0.353152
	C129	C	0.985539	0.621898	0.597301
	C130	C	0.003101	0.378392	0.596246
	C131	C	0.986122	0.377992	0.352942
	C132	C	0.871527	0.508128	0.096666
	C133	C	0.114722	0.491010	0.095537
	C134	C	0.114941	0.508717	0.854180
	C135	C	0.872551	0.490004	0.854523
	C136	C	0.115741	0.878875	0.483588
	C137	C	0.115692	0.120648	0.465715
	C138	C	0.873346	0.121191	0.483169
	C139	C	0.873180	0.878996	0.466215
	C140	C	0.501612	0.120357	0.853106
	C141	C	0.487071	0.120993	0.096486
	C142	C	0.503707	0.877743	0.096483
	C143	C	0.485618	0.877586	0.852309
	C144	C	0.372330	0.888760	0.654048
	C145	C	0.616075	0.109845	0.654784
	C146	C	0.615868	0.888849	0.296146
	C147	C	0.370423	0.108976	0.292157
	C148	C	0.675432	0.375484	0.865079
	C149	C	0.675716	0.623946	0.082592
	C150	C	0.312951	0.622949	0.865039
	C151	C	0.313021	0.376380	0.084610
	C152	C	0.883994	0.679410	0.353766
	C153	C	0.102628	0.682516	0.600192
	C154	C	0.886570	0.317034	0.599327
	C155	C	0.103303	0.317370	0.350333
	C156	C	0.885810	0.375902	0.656519
	C157	C	0.102335	0.624652	0.658471
	C158	C	0.883899	0.621519	0.295328
	C159	C	0.102950	0.374974	0.291845
	C160	C	0.371501	0.679688	0.864561
	C161	C	0.616710	0.680509	0.083199
	C162	C	0.617359	0.318157	0.865178
	C163	C	0.371660	0.319294	0.084879
	C164	C	0.674718	0.889214	0.352838
	C165	C	0.674812	0.109556	0.598190
	C166	C	0.314168	0.889098	0.596901
	C167	C	0.311486	0.108568	0.348841
	C168	C	0.870895	0.389420	0.155921
	C169	C	0.114555	0.610373	0.154080
	C170	C	0.115778	0.389653	0.795137
	C171	C	0.870800	0.608701	0.794804
	C172	C	0.174380	0.876512	0.364687
	C173	C	0.178024	0.125345	0.582261
	C174	C	0.814494	0.122877	0.364328
	C175	C	0.815412	0.878916	0.585435
	C176	C	0.384691	0.181548	0.850779
	C177	C	0.603916	0.181587	0.098376
	C178	C	0.386027	0.818782	0.098055
	C179	C	0.603454	0.818191	0.851607
	C180	C	0.386280	0.876615	0.156402
	C181	C	0.604465	0.123219	0.156078
	C182	C	0.384858	0.123921	0.792122
	C183	C	0.603534	0.876216	0.793630
	C184	C	0.873117	0.179779	0.364149
	C185	C	0.119221	0.182110	0.583143
	C186	C	0.115641	0.819870	0.364615
	C187	C	0.874382	0.822170	0.586229
	C188	C	0.174257	0.390003	0.852193
	C189	C	0.173577	0.609700	0.097738
	C190	C	0.812292	0.389723	0.099188
	C191	C	0.812590	0.608553	0.852185
	C192	C	0.398492	0.089868	0.569275
	C193	C	0.591963	0.908388	0.570438
	C194	C	0.592570	0.091404	0.378458
	C195	C	0.397803	0.908866	0.378770
	C196	C	0.590256	0.404365	0.065358
	C197	C	0.589901	0.593830	0.882994
	C198	C	0.396428	0.595958	0.065886
	C199	C	0.396549	0.403680	0.883622
	C200	C	0.084731	0.596669	0.376804
	C201	C	0.904119	0.596693	0.571778
	C202	C	0.084474	0.404166	0.570856
	C203	C	0.904516	0.402913	0.378348
	C204	C	0.896286	0.590555	0.071389
	C205	C	0.090937	0.408408	0.070433
	C206	C	0.090109	0.591324	0.879444
	C207	C	0.897467	0.407575	0.879642
	C208	C	0.091901	0.904326	0.566215
	C209	C	0.089571	0.094274	0.384137
	C210	C	0.897736	0.096023	0.565709
	C211	C	0.896357	0.902243	0.382798
	C212	C	0.583186	0.094772	0.878283
	C213	C	0.405464	0.095474	0.071128
	C214	C	0.585698	0.902330	0.071774
	C215	C	0.403419	0.902182	0.876754
	Zn216	Zn	0.494243	-0.000772	0.723274
	Zn217	Zn	0.495616	-0.000114	0.225378
	Zn218	Zn	0.743816	0.498692	-0.025066
	Zn219	Zn	0.243845	0.499871	-0.025046
	Zn220	Zn	-0.005499	0.750246	0.475147
	Zn221	Zn	-0.004926	0.249461	0.474614
	Zn222	Zn	-0.006189	0.499564	0.725982
	Zn223	Zn	-0.006271	0.499426	0.223964
	Zn224	Zn	0.494383	0.748758	-0.025841
	Zn225	Zn	0.494224	0.250198	-0.025385
	Zn226	Zn	0.744787	0.000385	0.474644
	Zn227	Zn	0.244281	-0.000692	0.473995
	N228	N	0.408311	0.963537	0.653016
	N229	N	0.580324	0.034959	0.653474
	N230	N	0.580429	0.963910	0.296725
	N231	N	0.407825	0.034896	0.294518
	N232	N	0.674359	0.412139	0.939613
	N233	N	0.674934	0.587085	0.008155
	N234	N	0.313043	0.587319	0.939971
	N235	N	0.312948	0.411974	0.009667
	N236	N	0.958786	0.679440	0.388721
	N237	N	0.029150	0.680764	0.562756
	N238	N	0.960505	0.318486	0.562571
	N239	N	0.029602	0.319109	0.387593
	N240	N	0.959337	0.413279	0.654754
	N241	N	0.028649	0.587522	0.656798
	N242	N	0.958487	0.585952	0.294926
	N243	N	0.029147	0.411937	0.293428
	N244	N	0.407517	0.678823	0.939307
	N245	N	0.579468	0.677841	0.009194
	N246	N	0.580775	0.319782	0.939685
	N247	N	0.407647	0.320159	0.010053
	N248	N	0.675287	0.964719	0.387968
	N249	N	0.675043	0.034675	0.562109
	N250	N	0.314672	0.964068	0.560667
	N251	N	0.312639	0.034114	0.385773
	N252	N	0.906967	0.464189	0.154572
	N253	N	0.078934	0.535484	0.153110
	N254	N	0.079703	0.464573	0.796249
	N255	N	0.907274	0.533974	0.795926
	N256	N	0.174800	0.912197	0.439795
	N257	N	0.175770	0.087654	0.508308
	N258	N	0.814014	0.087682	0.439634
	N259	N	0.814456	0.913210	0.509784
	N260	N	0.458315	0.179607	0.887946
	N261	N	0.529660	0.180449	0.062084
	N262	N	0.460134	0.819283	0.061603
	N263	N	0.528953	0.818727	0.887185
	N264	N	0.460608	0.912315	0.155759
	N265	N	0.530630	0.086407	0.154945
	N266	N	0.458507	0.086484	0.793603
	N267	N	0.529239	0.912381	0.793942
	N268	N	0.908647	0.179109	0.439147
	N269	N	0.081135	0.179152	0.509626
	N270	N	0.080136	0.820949	0.439638
	N271	N	0.909322	0.821669	0.510892
	N272	N	0.173889	0.465008	0.888013
	N273	N	0.174040	0.534441	0.062214
	N274	N	0.812352	0.464778	0.063254
	N275	N	0.813711	0.533735	0.888430
	O276	O	0.217288	1.141453	-0.167757
	H277	H	0.206532	1.139799	-0.156318
	H278	H	0.220958	1.136469	-0.186775
	O279	O	0.451982	0.715378	0.258745
	H280	H	0.471428	0.724600	0.253930
	H281	H	0.467170	0.712323	0.253327
	O282	O	0.972576	-0.208060	1.186396
	H283	H	0.945910	-0.199945	1.192813
	H284	H	0.959899	-0.224416	1.196864
	O285	O	0.707939	0.474567	0.263511
	H286	H	0.699376	0.481941	0.275082
	H287	H	0.726767	0.473472	0.247530
	O288	O	0.265032	0.444574	0.410294
	H289	H	0.264219	0.451259	0.382083
	H290	H	0.260311	0.438968	0.421964
	O291	O	0.452626	0.332796	0.444107
	H292	H	0.440817	0.332205	0.458053
	H293	H	0.470811	0.327186	0.462408
	O294	O	0.967194	-0.200035	1.002866
	H295	H	0.963455	-0.187793	1.010829
	H296	H	0.983436	-0.207164	0.994810
	O297	O	0.286355	0.702757	0.272157
	H298	H	0.267318	0.721903	0.257708
	H299	H	0.337643	0.707877	0.271353
	O300	O	-0.636618	0.302110	0.341979
	H301	H	-0.651598	0.298858	0.356016
	H302	H	-0.615968	0.314947	0.368740
	O303	O	0.025117	0.212299	1.185394
	H304	H	0.018678	0.228287	1.207173
	H305	H	0.020044	0.205875	1.175306
	O306	O	1.031871	0.045543	0.751161
	H307	H	1.022505	0.027719	0.751022
	H308	H	1.028193	0.026222	0.754180
	O309	O	0.416492	0.292610	0.516358
	H310	H	0.431967	0.305669	0.517816
	H311	H	0.411530	0.288302	0.526923
	O312	O	0.334575	0.662401	0.666452
	H313	H	0.350684	0.653781	0.645452
	H314	H	0.355900	0.645111	0.655453
	O315	O	0.533470	1.597374	0.314437
	H316	H	0.533754	1.587348	0.324655
	H317	H	0.525363	1.580101	0.321202
	O318	O	0.545759	0.489183	0.561215
	H319	H	0.533305	0.473024	0.557998
	H320	H	0.540231	0.490430	0.562150
	O321	O	0.549398	0.713681	0.438838
	H322	H	0.550968	0.713017	0.456918
	H323	H	0.541621	0.726463	0.444165
	O324	O	0.974020	0.820668	-0.065928
	H325	H	0.982214	0.819961	-0.064519
	H326	H	0.992083	0.823567	-0.070685
	O327	O	0.044466	0.122345	0.922613
	H328	H	0.052200	0.116930	0.935147
	H329	H	0.037998	0.123854	0.937146
	O330	O	0.504939	0.484404	0.627288
	H331	H	0.505434	0.472100	0.623480
	H332	H	0.517462	0.496426	0.628124
	O333	O	-0.058453	0.083870	0.938045
	H334	H	-0.078114	0.082059	0.943219
	H335	H	-0.049051	0.088928	0.929438
	O336	O	0.781268	0.021877	0.763923
	H337	H	0.787688	0.049725	0.770943
	H338	H	0.765026	0.029878	0.743445
	O339	O	0.768555	0.046295	1.040129
	H340	H	0.761166	0.040499	1.056969
	H341	H	0.779957	0.034673	1.053930
	O342	O	-0.279821	0.277566	0.448162
	H343	H	-0.253196	0.250641	0.433065
	H344	H	-0.281897	0.281206	0.409960
	O345	O	-0.016659	0.969577	1.031212
	H346	H	-0.017616	0.968720	1.034977
	H347	H	-0.025205	0.957502	1.030303
	O348	O	0.480399	0.520077	0.575117
	H349	H	0.486867	0.531744	0.574242
	H350	H	0.482556	0.512194	0.560659
	O351	O	0.835415	1.190143	0.140171
	H352	H	0.845859	1.188765	0.129153
	H353	H	0.845043	1.173970	0.140518
	O354	O	-0.047849	0.191796	1.009391
	H355	H	-0.066651	0.178498	1.013081
	H356	H	-0.059472	0.196333	0.998853
	O357	O	1.437793	1.677367	0.522373
	H358	H	1.427791	1.680670	0.524668
	H359	H	1.442692	1.660542	0.524917
	O360	O	0.286317	0.289640	0.500812
	H361	H	0.277936	0.280517	0.496789
	H362	H	0.296385	0.288380	0.506358
	O363	O	-0.296153	-0.289854	0.258850
	H364	H	-0.314521	-0.316154	0.279731
	H365	H	-0.301980	-0.303276	0.273036
	O366	O	0.701349	0.707442	0.676394
	H367	H	0.708535	0.656906	0.680543
	H368	H	0.734559	0.733314	0.711078
	O369	O	1.219617	-0.054600	0.041286
	H370	H	1.217780	-0.031328	0.051869
	H371	H	1.216300	-0.055530	0.021243
	O372	O	0.997738	0.782851	-0.199055
	H373	H	1.022717	0.784291	-0.207032
	H374	H	1.017358	0.768710	-0.205676
	O375	O	0.937654	0.058674	-0.059197
	H376	H	0.922345	0.074685	-0.069201
	H377	H	0.945178	0.084260	-0.056991
	O378	O	-0.025855	1.042718	1.094916
	H379	H	-0.015074	1.035001	1.104341
	H380	H	-0.024655	1.019842	1.097820
	O381	O	0.686916	0.310799	1.663495
	H382	H	0.687671	0.310287	1.666296
	H383	H	0.666590	0.329740	1.656396
	O384	O	1.186250	-0.186991	1.159906
	H385	H	1.169192	-0.185151	1.155789
	H386	H	1.187402	-0.166146	1.139362
	O387	O	1.212290	0.782212	-0.056024
	H388	H	1.223017	0.767405	-0.062598
	H389	H	1.217609	0.786720	-0.053471
	O390	O	0.528089	0.282273	0.255588
	H391	H	0.521893	0.276633	0.250565
	H392	H	0.519433	0.267798	0.246306
	O393	O	0.268588	0.555054	0.525717
	H394	H	0.265988	0.548402	0.528865
	H395	H	0.261182	0.572381	0.510032
	O396	O	0.711610	1.540879	1.686200
	H397	H	0.715288	1.520687	1.686606
	H398	H	0.715986	1.522599	1.692774
	O399	O	-0.152886	-0.138688	1.028928
	H400	H	-0.163604	-0.150063	1.020178
	H401	H	-0.140654	-0.131455	1.021000
	O402	O	0.487213	0.311046	0.679024
	H403	H	0.462500	0.328691	0.680163
	H404	H	0.461547	0.289670	0.693512
	O405	O	0.957930	0.209533	0.760519
	H406	H	0.971731	0.203095	0.758084
	H407	H	0.964297	0.223728	0.755978
	O408	O	-0.201446	-0.195161	-0.215854
	H409	H	-0.182529	-0.170620	-0.208231
	H410	H	-0.183508	-0.183905	-0.185999
	O411	O	0.230521	0.752107	0.725378
	H412	H	0.233841	0.763602	0.734283
	H413	H	0.263975	0.726703	0.705054
	O414	O	0.776734	0.208261	0.943955
	H415	H	0.771500	0.204680	0.946575
	H416	H	0.759974	0.211291	0.934331
	O417	O	0.642846	0.546173	0.436020
	H418	H	0.645579	0.576038	0.452445
	H419	H	0.638377	0.526219	0.434217
	O420	O	0.270120	0.715726	0.447001
	H421	H	0.273597	0.729956	0.431173
	H422	H	0.261501	0.732236	0.428653
	O423	O	0.207731	0.030308	1.188939
	H424	H	0.219115	0.053000	1.199172
	H425	H	0.216493	0.029221	1.193517
	O426	O	0.716492	0.465263	0.490668
	H427	H	0.713148	0.460865	0.489683
	H428	H	0.716672	0.465538	0.472208
	O429	O	0.200067	0.207681	1.183944
	H430	H	0.218710	0.204495	1.192522
	H431	H	0.168614	0.212139	1.172174
	O432	O	0.277804	0.472719	0.687988
	H433	H	0.269852	0.481564	0.704237
	H434	H	0.278369	0.477979	0.682290
	O435	O	0.269403	0.533622	0.255499
	H436	H	0.258130	0.558128	0.245185
	H437	H	0.255588	0.553877	0.244400
	O438	O	-0.042263	-0.096136	-0.233625
	H439	H	-0.032060	-0.104359	-0.235766
	H440	H	-0.042524	-0.104303	-0.216943
	O441	O	0.711211	0.718047	0.504812
	H442	H	0.712383	0.726033	0.532827
	H443	H	0.731566	0.730806	0.522521
	O444	O	0.692528	0.304994	0.283027
	H445	H	0.696220	0.338852	0.274890
	H446	H	0.666840	0.294742	0.266993
	O447	O	-0.215802	1.205043	0.769221
	H448	H	-0.199513	1.212229	0.782594
	H449	H	-0.209192	1.213371	0.755823
	O450	O	0.007794	0.916948	1.148015
	H451	H	0.004399	0.920296	1.154367
	H452	H	0.002004	0.920930	1.149846
	O453	O	0.524680	0.600925	0.346870
	H454	H	0.528844	0.586371	0.347559
	H455	H	0.517513	0.598070	0.360018
	O456	O	-0.183423	-0.193516	1.156711
	H457	H	-0.187682	-0.200922	1.106669
	H458	H	-0.212987	-0.215418	1.176371
	O459	O	0.861662	0.969072	0.195993
	H460	H	0.838934	0.957271	0.221088
	H461	H	0.877041	0.928992	0.191654
	O462	O	0.517699	0.368936	0.424954
	H463	H	0.512911	0.374069	0.440215
	H464	H	0.530623	0.367197	0.431279
	O465	O	0.572247	-0.531372	-0.418107
	H466	H	0.558581	-0.536727	-0.413443
	H467	H	0.573278	-0.539539	-0.419927
	O468	O	0.484140	0.467163	0.253607
	H469	H	0.468571	0.459900	0.255893
	H470	H	0.467730	0.458853	0.258925
	O471	O	-0.046509	0.033247	0.866590
	H472	H	-0.058904	0.023246	0.867516
	H473	H	-0.053207	0.029839	0.870482
	O474	O	0.054215	1.071416	1.006811
	H475	H	0.044220	1.081998	1.004918
	H476	H	0.069623	1.076596	1.019503
	O477	O	1.214070	-0.034226	0.754861
	H478	H	1.228991	-0.038334	0.736986
	H479	H	1.213702	-0.034177	0.750189
	O480	O	0.530152	0.716834	0.694272
	H481	H	0.553699	0.731020	0.706730
	H482	H	0.557445	0.730922	0.698964
	O483	O	1.292759	1.304104	0.685089
	H484	H	1.279801	1.320865	0.695473
	H485	H	1.279347	1.300603	0.672813
	O486	O	1.158052	-0.019117	0.863028
	H487	H	1.154913	-0.003631	0.868267
	H488	H	1.159781	-0.019725	0.867295
	O489	O	1.162747	1.141702	0.027035
	H490	H	1.174124	1.156878	0.032504
	H491	H	1.164748	1.139896	0.043710
