data_Molecule from HDF5

_cell_length_a		16.195992
_cell_length_b		15.968829
_cell_length_c		16.407242
_cell_angle_alpha	90.806470
_cell_angle_beta	89.644344
_cell_angle_gamma	90.352383
_symmetry_space_group_name_H-M	'P 1'
_symmetry_Int_Tables_number		1

loop_
	_symmetry_equiv_pos_as_xyz
	x,y,z

loop_
	_atom_site_label
	_atom_site_type_symbol
	_atom_site_fract_x
	_atom_site_fract_y
	_atom_site_fract_z
	H0	H	0.383019	0.838096	0.705864
	H1	H	0.587528	0.169445	0.709889
	H2	H	0.585936	0.839183	0.275828
	H3	H	0.387607	0.171266	0.284227
	H4	H	0.705973	0.400307	0.832586
	H5	H	0.703773	0.610052	0.156113
	H6	H	0.272049	0.599673	0.831650
	H7	H	0.269239	0.406701	0.156874
	H8	H	0.819791	0.708776	0.406693
	H9	H	0.152392	0.719836	0.591831
	H10	H	0.821158	0.297422	0.588699
	H11	H	0.152504	0.292111	0.397319
	H12	H	0.826767	0.401965	0.713226
	H13	H	0.152048	0.609528	0.711830
	H14	H	0.826318	0.609629	0.278222
	H15	H	0.151817	0.404166	0.278048
	H16	H	0.393156	0.711740	0.828227
	H17	H	0.585520	0.724639	0.155507
	H18	H	0.582340	0.288922	0.830319
	H19	H	0.389673	0.295044	0.158632
	H20	H	0.696640	0.837313	0.393902
	H21	H	0.695362	0.171646	0.591609
	H22	H	0.272009	0.837800	0.590132
	H23	H	0.275915	0.171874	0.402394
	H24	H	0.886078	0.340634	0.208734
	H25	H	0.093465	0.669431	0.212930
	H26	H	0.091818	0.339448	0.775480
	H27	H	0.889371	0.669368	0.783479
	H28	H	0.202594	0.901343	0.333322
	H29	H	0.201136	0.108286	0.658359
	H30	H	0.772802	0.100947	0.332411
	H31	H	0.766695	0.906701	0.657652
	H32	H	0.319049	0.210552	0.903566
	H33	H	0.651326	0.218142	0.089642
	H34	H	0.320828	0.792763	0.086764
	H35	H	0.652516	0.791928	0.892767
	H36	H	0.323652	0.899910	0.210668
	H37	H	0.649071	0.109437	0.211079
	H38	H	0.322398	0.104953	0.778515
	H39	H	0.648749	0.900708	0.771921
	H40	H	0.891713	0.214723	0.331691
	H41	H	0.081826	0.222134	0.658521
	H42	H	0.081785	0.788729	0.331939
	H43	H	0.885648	0.792016	0.659556
	H44	H	0.196593	0.336472	0.896003
	H45	H	0.202641	0.669983	0.094924
	H46	H	0.773501	0.338915	0.092025
	H47	H	0.777304	0.670536	0.898549
	H48	H	0.398234	0.122632	0.591558
	H49	H	0.568535	0.884603	0.589714
	H50	H	0.581736	0.125265	0.403273
	H51	H	0.400706	0.886825	0.395778
	H52	H	0.603026	0.412298	0.117252
	H53	H	0.576013	0.606517	0.876408
	H54	H	0.402587	0.604837	0.108192
	H55	H	0.391920	0.400296	0.876432
	H56	H	0.105068	0.598559	0.405003
	H57	H	0.869542	0.593559	0.594951
	H58	H	0.107663	0.412891	0.590685
	H59	H	0.869231	0.411585	0.396970
	H60	H	0.106328	0.412669	0.583273
	H61	H	0.869672	0.597012	0.595146
	H62	H	0.104750	0.593363	0.402422
	H63	H	0.869793	0.409319	0.400808
	H64	H	0.384521	0.602297	0.113547
	H65	H	0.597611	0.595807	0.873759
	H66	H	0.572268	0.434164	0.101564
	H67	H	0.385445	0.408364	0.876320
	H68	H	0.580131	0.124772	0.399701
	H69	H	0.572926	0.887832	0.575630
	H70	H	0.393648	0.122807	0.585246
	H71	H	0.393343	0.886836	0.408655
	H72	H	0.900248	0.625489	0.096976
	H73	H	0.089136	0.381050	0.090685
	H74	H	0.076186	0.619271	0.914399
	H75	H	0.887405	0.382403	0.904843
	H76	H	0.075466	0.915213	0.610794
	H77	H	0.088173	0.098125	0.377277
	H78	H	0.893284	0.109027	0.613699
	H79	H	0.881122	0.909161	0.377967
	H80	H	0.602542	0.091703	0.901133
	H81	H	0.371437	0.092826	0.082071
	H82	H	0.600043	0.922558	0.079052
	H83	H	0.369751	0.912348	0.898326
	H84	H	0.605002	0.918453	0.092580
	H85	H	0.366781	0.090396	0.100956
	H86	H	0.603708	0.094846	0.894666
	H87	H	0.367895	0.909036	0.896096
	H88	H	0.879336	0.099214	0.613953
	H89	H	0.081283	0.091149	0.381474
	H90	H	0.079368	0.911875	0.612813
	H91	H	0.895915	0.914351	0.383632
	H92	H	0.092981	0.627432	0.903425
	H93	H	0.067398	0.385875	0.096093
	H94	H	0.902700	0.622116	0.083972
	H95	H	0.900750	0.382607	0.892414
	H96	H	0.391812	0.125835	0.591909
	H97	H	0.582985	0.881937	0.584757
	H98	H	0.577609	0.124217	0.401687
	H99	H	0.385930	0.881807	0.395732
	H100	H	0.566997	0.394692	0.111755
	H101	H	0.578166	0.583315	0.882651
	H102	H	0.394717	0.587396	0.105411
	H103	H	0.394847	0.409974	0.879577
	H104	H	0.107318	0.597820	0.399395
	H105	H	0.870423	0.595132	0.592033
	H106	H	0.105665	0.418756	0.587640
	H107	H	0.870780	0.414061	0.401084
	H108	H	0.890060	0.626614	0.086928
	H109	H	0.075171	0.389214	0.074628
	H110	H	0.073475	0.624666	0.893054
	H111	H	0.904015	0.388970	0.908263
	H112	H	0.080616	0.916743	0.611502
	H113	H	0.077710	0.100380	0.379167
	H114	H	0.894958	0.093057	0.608465
	H115	H	0.894153	0.897725	0.377620
	H116	H	0.604577	0.099458	0.901336
	H117	H	0.363713	0.108162	0.092082
	H118	H	0.604796	0.909139	0.081343
	H119	H	0.369938	0.908145	0.900372
	C120	C	0.364267	0.013638	0.616398
	C121	C	0.604661	0.995050	0.613622
	C122	C	0.608028	0.014192	0.371752
	C123	C	0.365197	0.995480	0.373510
	C124	C	0.609520	0.382169	0.002724
	C125	C	0.611645	0.627345	0.984889
	C126	C	0.365546	0.624968	0.001471
	C127	C	0.362578	0.380566	0.985710
	C128	C	-0.003318	0.625162	0.375133
	C129	C	0.978949	0.626266	0.620318
	C130	C	-0.002394	0.385015	0.615902
	C131	C	0.978773	0.382949	0.371880
	C132	C	0.867136	0.514810	0.116951
	C133	C	0.108042	0.495351	0.116074
	C134	C	0.109039	0.513069	0.873753
	C135	C	0.868642	0.494562	0.874527
	C136	C	0.107002	0.883382	0.504015
	C137	C	0.109527	0.127644	0.486977
	C138	C	0.862977	0.127133	0.503826
	C139	C	0.861756	0.880757	0.487320
	C140	C	0.494338	0.123669	0.873050
	C141	C	0.476626	0.127074	0.118282
	C142	C	0.495149	0.885264	0.113141
	C143	C	0.477558	0.880976	0.868648
	C144	C	0.364173	0.888056	0.669426
	C145	C	0.605164	0.120044	0.670776
	C146	C	0.606266	0.888956	0.314220
	C147	C	0.367548	0.121321	0.320915
	C148	C	0.666132	0.381721	0.880633
	C149	C	0.665861	0.628663	0.107303
	C150	C	0.310422	0.620736	0.879628
	C151	C	0.307536	0.385661	0.108289
	C152	C	0.870795	0.675384	0.382523
	C153	C	0.102779	0.682813	0.614462
	C154	C	0.871868	0.332116	0.611067
	C155	C	0.103092	0.328824	0.375408
	C156	C	0.874721	0.383914	0.673158
	C157	C	0.102799	0.627737	0.673978
	C158	C	0.874240	0.625944	0.318556
	C159	C	0.102550	0.384541	0.316170
	C160	C	0.370756	0.676331	0.877884
	C161	C	0.607021	0.685816	0.107070
	C162	C	0.604913	0.326124	0.879586
	C163	C	0.367190	0.330144	0.109372
	C164	C	0.661090	0.887974	0.373230
	C165	C	0.659160	0.121312	0.612239
	C166	C	0.308778	0.887756	0.611842
	C167	C	0.312386	0.121796	0.379706
	C168	C	0.866798	0.390103	0.171286
	C169	C	0.110298	0.620230	0.173418
	C170	C	0.109494	0.388687	0.815088
	C171	C	0.870083	0.619708	0.820655
	C172	C	0.163357	0.882754	0.381620
	C173	C	0.163345	0.127427	0.609538
	C174	C	0.810184	0.122146	0.381102
	C175	C	0.805194	0.885193	0.609485
	C176	C	0.369125	0.175682	0.879953
	C177	C	0.601400	0.181893	0.112310
	C178	C	0.370638	0.829465	0.108895
	C179	C	0.602188	0.827544	0.871406
	C180	C	0.372223	0.882639	0.170737
	C181	C	0.600282	0.127433	0.172443
	C182	C	0.370876	0.122707	0.818193
	C183	C	0.600522	0.881955	0.811454
	C184	C	0.869450	0.178811	0.380677
	C185	C	0.104075	0.184038	0.609848
	C186	C	0.102973	0.827095	0.380877
	C187	C	0.864745	0.828458	0.610385
	C188	C	0.161511	0.386879	0.875231
	C189	C	0.165000	0.620488	0.114938
	C190	C	0.810964	0.389023	0.113161
	C191	C	0.814006	0.620276	0.877847
	C192	C	0.387665	0.101222	0.595689
	C193	C	0.581447	0.907429	0.590057
	C194	C	0.586257	0.101991	0.394913
	C195	C	0.386850	0.907872	0.393955
	C196	C	0.587242	0.406639	0.088008
	C197	C	0.590242	0.602364	0.899547
	C198	C	0.387509	0.604568	0.086977
	C199	C	0.384355	0.400334	0.899716
	C200	C	0.083440	0.603163	0.396060
	C201	C	0.892191	0.602341	0.599969
	C202	C	0.084096	0.408051	0.593690
	C203	C	0.892298	0.405057	0.393393
	C204	C	0.890514	0.601907	0.095588
	C205	C	0.084038	0.407990	0.093610
	C206	C	0.087275	0.600924	0.896800
	C207	C	0.890832	0.407303	0.895615
	C208	C	0.085020	0.907718	0.589443
	C209	C	0.088623	0.103753	0.401443
	C210	C	0.883008	0.106448	0.589770
	C211	C	0.883787	0.901104	0.401945
	C212	C	0.581152	0.101830	0.893303
	C213	C	0.389939	0.103864	0.097876
	C214	C	0.580978	0.909514	0.090886
	C215	C	0.391387	0.903364	0.891394
	Zn216	Zn	0.485815	0.003618	0.741807
	Zn217	Zn	0.486105	0.004926	0.245476
	Zn218	Zn	0.740685	0.504664	-0.005301
	Zn219	Zn	0.233992	0.503270	-0.005677
	Zn220	Zn	-0.014393	0.752547	0.496884
	Zn221	Zn	-0.013204	0.256211	0.495039
	Zn222	Zn	-0.010292	0.503926	0.746947
	Zn223	Zn	-0.011568	0.505977	0.244742
	Zn224	Zn	0.487059	0.755350	-0.007831
	Zn225	Zn	0.485666	0.252672	-0.005281
	Zn226	Zn	0.732872	0.004381	0.495070
	Zn227	Zn	0.238027	0.004497	0.495756
	N228	N	0.398000	0.967361	0.672386
	N229	N	0.572064	0.040389	0.671598
	N230	N	0.574088	0.968480	0.313169
	N231	N	0.399611	0.041785	0.316896
	N232	N	0.668990	0.415875	0.958105
	N233	N	0.668864	0.593153	0.030251
	N234	N	0.307031	0.589737	0.957483
	N235	N	0.304275	0.415808	0.030242
	N236	N	0.948120	0.675249	0.416948
	N237	N	0.024648	0.682164	0.582074
	N238	N	0.949424	0.332364	0.576180
	N239	N	0.025165	0.327416	0.409229
	N240	N	0.953663	0.416160	0.676231
	N241	N	0.024603	0.593393	0.677973
	N242	N	0.953562	0.595312	0.313923
	N243	N	0.024249	0.417672	0.313942
	N244	N	0.404252	0.679254	0.954721
	N245	N	0.574038	0.685205	0.029944
	N246	N	0.570369	0.326298	0.956529
	N247	N	0.400801	0.326644	0.032210
	N248	N	0.662768	0.967022	0.407991
	N249	N	0.659120	0.042495	0.577324
	N250	N	0.308642	0.966751	0.579592
	N251	N	0.310362	0.042402	0.411440
	N252	N	0.900941	0.469170	0.173940
	N253	N	0.075608	0.541427	0.174229
	N254	N	0.077441	0.468275	0.814307
	N255	N	0.903303	0.540530	0.818187
	N256	N	0.165817	0.917316	0.459043
	N257	N	0.166891	0.092895	0.532017
	N258	N	0.805820	0.091091	0.458825
	N259	N	0.803078	0.916906	0.532055
	N260	N	0.446846	0.176324	0.913434
	N261	N	0.523427	0.181912	0.079417
	N262	N	0.447854	0.831033	0.073661
	N263	N	0.524852	0.826765	0.906470
	N264	N	0.450582	0.916786	0.173587
	N265	N	0.521694	0.093958	0.176212
	N266	N	0.449803	0.091236	0.813489
	N267	N	0.521991	0.914355	0.809546
	N268	N	0.901805	0.181853	0.457962
	N269	N	0.071449	0.184244	0.532712
	N270	N	0.068921	0.827140	0.457965
	N271	N	0.899140	0.825629	0.533489
	N272	N	0.161354	0.465313	0.911108
	N273	N	0.163661	0.541862	0.079823
	N274	N	0.810858	0.467735	0.080169
	N275	N	0.812985	0.541568	0.910774
	O276	O	-0.031743	-0.018495	-0.061404
	H277	H	-0.017420	-0.019200	-0.066241
	H278	H	-0.029246	-0.026324	-0.067751
	O279	O	0.512347	0.538893	0.546827
	H280	H	0.511858	0.544831	0.555640
	H281	H	0.521342	0.541256	0.550738
	O282	O	0.577048	0.536201	0.488016
	H283	H	0.575866	0.543069	0.500551
	H284	H	0.586540	0.536283	0.500023
	O285	O	0.001027	1.031780	0.988675
	H286	H	0.001368	1.039520	0.997925
	H287	H	-0.001547	1.034479	0.973086
	O288	O	0.504002	0.527077	0.448006
	H289	H	0.500159	0.519206	0.447701
	H290	H	0.511474	0.524845	0.448080
	O291	O	0.991800	1.034078	0.967254
	H292	H	1.005396	1.037409	0.956201
	H293	H	1.003102	1.037698	0.981625
	O294	O	0.931635	0.940941	1.027966
	H295	H	0.920624	0.937159	1.025349
	H296	H	0.927491	0.948735	1.038871
	O297	O	1.053450	-0.038308	1.043990
	H298	H	1.053404	-0.048390	1.038249
	H299	H	1.066737	-0.037735	1.031589
	O300	O	0.500783	0.482040	0.490832
	H301	H	0.508775	0.487419	0.481918
	H302	H	0.505656	0.479674	0.479037
	O303	O	1.082585	-0.040287	0.012800
	H304	H	1.071673	-0.053619	0.008406
	H305	H	1.084886	-0.042169	0.009732
	O306	O	0.031199	1.090725	0.950795
	H307	H	0.040090	1.103868	0.946385
	H308	H	0.020922	1.099733	0.966433
	O309	O	0.947813	0.910792	0.938279
	H310	H	0.936398	0.888637	0.951126
	H311	H	0.946171	0.916756	0.936808
	O312	O	1.086154	0.093688	1.050125
	H313	H	1.087699	0.091583	1.049626
	H314	H	1.094682	0.086823	1.062294
	O315	O	0.460605	0.574375	0.417385
	H316	H	0.463396	0.567756	0.419628
	H317	H	0.464900	0.581922	0.422123
	O318	O	0.640637	0.536097	0.494459
	H319	H	0.642169	0.529766	0.491339
	H320	H	0.641335	0.520437	0.490294
	O321	O	0.863161	0.976295	1.138126
	H322	H	0.868330	0.967539	1.145141
	H323	H	0.856738	0.968345	1.130331
	O324	O	1.027269	-0.101612	-0.068426
	H325	H	1.037355	-0.104395	-0.078169
	H326	H	1.021425	-0.103655	-0.056317
	O327	O	0.463985	0.497959	0.470801
	H328	H	0.469013	0.488164	0.458023
	H329	H	0.470771	0.500890	0.480928
	O330	O	1.076820	0.024133	0.894718
	H331	H	1.082644	0.027991	0.895015
	H332	H	1.067140	0.016782	0.889568
	O333	O	0.996188	0.937674	0.024683
	H334	H	0.991589	0.935471	0.021315
	H335	H	1.003709	0.943675	0.023658
	O336	O	0.625371	0.461794	0.402592
	H337	H	0.625200	0.463881	0.416205
	H338	H	0.641935	0.448560	0.401073
	O339	O	0.543697	0.381222	0.358717
	H340	H	0.555372	0.395400	0.364409
	H341	H	0.542903	0.360755	0.343030
	O342	O	-0.056771	1.094487	0.137971
	H343	H	-0.048591	1.091115	0.132897
	H344	H	-0.043640	1.098918	0.138836
	O345	O	-0.109046	0.040805	0.057710
	H346	H	-0.105336	0.043991	0.060147
	H347	H	-0.120608	0.050334	0.056805
	O348	O	0.931442	0.042563	1.026723
	H349	H	0.929599	0.040499	1.038189
	H350	H	0.933891	0.036812	1.027604
	O351	O	-0.043556	0.898756	1.085180
	H352	H	-0.044872	0.897570	1.096391
	H353	H	-0.035231	0.902677	1.095951
	O354	O	0.483908	0.567893	0.381499
	H355	H	0.478407	0.574602	0.384489
	H356	H	0.484940	0.570443	0.378384
	O357	O	0.829044	0.071218	0.003509
	H358	H	0.821349	0.075181	0.011512
	H359	H	0.830092	0.069903	0.006556
	O360	O	0.011105	0.012347	0.004198
	H361	H	0.016525	0.015892	0.002874
	H362	H	0.012113	0.007880	0.010078
	O363	O	0.490604	0.490839	0.494417
	H364	H	0.494334	0.486982	0.490386
	H365	H	0.491010	0.488899	0.483892
	O366	O	-0.026092	0.026191	0.986908
	H367	H	-0.021642	0.015737	0.985792
	H368	H	-0.012062	0.021726	0.991318
	O369	O	0.581741	0.545171	0.481640
	H370	H	0.582856	0.549482	0.476884
	H371	H	0.583443	0.539425	0.474133
