data_Molecule from HDF5

_cell_length_a		16.225485
_cell_length_b		16.170229
_cell_length_c		16.436377
_cell_angle_alpha	90.258856
_cell_angle_beta	90.186610
_cell_angle_gamma	90.383007
_symmetry_space_group_name_H-M	'P 1'
_symmetry_Int_Tables_number		1

loop_
	_symmetry_equiv_pos_as_xyz
	x,y,z

loop_
	_atom_site_label
	_atom_site_type_symbol
	_atom_site_fract_x
	_atom_site_fract_y
	_atom_site_fract_z
	H0	H	0.389145	0.830929	0.717504
	H1	H	0.601412	0.155373	0.720286
	H2	H	0.597248	0.831278	0.282490
	H3	H	0.391801	0.154581	0.281785
	H4	H	0.711063	0.391786	0.840045
	H5	H	0.716032	0.599178	0.160251
	H6	H	0.275873	0.592933	0.840516
	H7	H	0.275922	0.389367	0.161101
	H8	H	0.831042	0.705812	0.401901
	H9	H	0.156897	0.712718	0.603476
	H10	H	0.832198	0.276979	0.599627
	H11	H	0.159004	0.280752	0.403674
	H12	H	0.833854	0.386562	0.719679
	H13	H	0.155928	0.600034	0.723150
	H14	H	0.835000	0.597332	0.280590
	H15	H	0.157457	0.391671	0.283411
	H16	H	0.393263	0.709209	0.839595
	H17	H	0.598260	0.712515	0.161307
	H18	H	0.596555	0.274901	0.839837
	H19	H	0.394075	0.275479	0.161758
	H20	H	0.709031	0.830300	0.399234
	H21	H	0.713391	0.156736	0.602152
	H22	H	0.277106	0.830854	0.598464
	H23	H	0.281620	0.157541	0.400522
	H24	H	0.891812	0.331087	0.217596
	H25	H	0.103512	0.655156	0.221549
	H26	H	0.098656	0.331761	0.780485
	H27	H	0.888891	0.653459	0.780861
	H28	H	0.210754	0.893750	0.339135
	H29	H	0.215789	0.099310	0.660340
	H30	H	0.777175	0.094767	0.340616
	H31	H	0.776521	0.890542	0.660656
	H32	H	0.331139	0.205164	0.902057
	H33	H	0.657496	0.210474	0.102593
	H34	H	0.331721	0.775097	0.100210
	H35	H	0.658838	0.779229	0.901404
	H36	H	0.333163	0.887840	0.218886
	H37	H	0.655222	0.099159	0.221993
	H38	H	0.333821	0.096736	0.780850
	H39	H	0.656037	0.888365	0.780614
	H40	H	0.895758	0.208966	0.339943
	H41	H	0.096599	0.211937	0.662410
	H42	H	0.096392	0.774797	0.340060
	H43	H	0.892161	0.774785	0.660585
	H44	H	0.208394	0.328944	0.898794
	H45	H	0.214163	0.655117	0.102776
	H46	H	0.778522	0.330083	0.100594
	H47	H	0.780347	0.656182	0.900773
	H48	H	0.399716	0.109977	0.585771
	H49	H	0.589004	0.877609	0.583511
	H50	H	0.583266	0.107991	0.415320
	H51	H	0.394041	0.873974	0.409567
	H52	H	0.588377	0.406996	0.115483
	H53	H	0.581498	0.588112	0.886647
	H54	H	0.412684	0.586099	0.113610
	H55	H	0.401878	0.406277	0.887694
	H56	H	0.112211	0.588079	0.414292
	H57	H	0.883746	0.574398	0.587068
	H58	H	0.109685	0.414325	0.596228
	H59	H	0.880203	0.406810	0.407418
	H60	H	0.114886	0.399824	0.597893
	H61	H	0.876472	0.580401	0.602279
	H62	H	0.110014	0.579156	0.412839
	H63	H	0.877270	0.399595	0.404335
	H64	H	0.399634	0.587568	0.118046
	H65	H	0.593488	0.588433	0.883159
	H66	H	0.582237	0.401672	0.113152
	H67	H	0.407112	0.395939	0.886900
	H68	H	0.589377	0.111103	0.410313
	H69	H	0.585951	0.874347	0.598044
	H70	H	0.405387	0.112964	0.601723
	H71	H	0.406267	0.875284	0.400768
	H72	H	0.913121	0.606360	0.087639
	H73	H	0.080919	0.376990	0.096160
	H74	H	0.076992	0.605302	0.915057
	H75	H	0.905419	0.377207	0.909521
	H76	H	0.082288	0.907098	0.612447
	H77	H	0.088194	0.089444	0.384662
	H78	H	0.901660	0.087839	0.617408
	H79	H	0.903653	0.905167	0.387543
	H80	H	0.612252	0.088260	0.911384
	H81	H	0.380118	0.079066	0.089232
	H82	H	0.610424	0.903554	0.090128
	H83	H	0.381309	0.905825	0.912196
	H84	H	0.609676	0.906016	0.093822
	H85	H	0.377664	0.080459	0.095699
	H86	H	0.608296	0.078752	0.914214
	H87	H	0.378206	0.903988	0.903269
	H88	H	0.903006	0.080893	0.614609
	H89	H	0.090195	0.085329	0.386348
	H90	H	0.084963	0.901605	0.614694
	H91	H	0.904523	0.894854	0.384664
	H92	H	0.090084	0.609029	0.916491
	H93	H	0.081677	0.377980	0.089338
	H94	H	0.899878	0.611183	0.088912
	H95	H	0.902513	0.376103	0.910324
	H96	H	0.416735	0.106477	0.589946
	H97	H	0.575080	0.880853	0.589792
	H98	H	0.581791	0.110386	0.407115
	H99	H	0.407231	0.880611	0.415669
	H100	H	0.588920	0.399886	0.117261
	H101	H	0.588353	0.577757	0.887012
	H102	H	0.403239	0.575526	0.112622
	H103	H	0.396004	0.397066	0.883558
	H104	H	0.112597	0.584839	0.406138
	H105	H	0.877918	0.591413	0.588611
	H106	H	0.108481	0.404057	0.585016
	H107	H	0.878914	0.399960	0.412317
	H108	H	0.908414	0.611417	0.099939
	H109	H	0.086967	0.375963	0.092587
	H110	H	0.083474	0.610866	0.905490
	H111	H	0.903235	0.375009	0.907302
	H112	H	0.088615	0.907365	0.615026
	H113	H	0.085851	0.086578	0.386043
	H114	H	0.908340	0.086177	0.615077
	H115	H	0.895120	0.900179	0.383837
	H116	H	0.612208	0.080680	0.904233
	H117	H	0.378016	0.086107	0.091424
	H118	H	0.612295	0.901804	0.094698
	H119	H	0.377828	0.896540	0.909760
	C120	C	0.374352	0.002127	0.621887
	C121	C	0.615897	0.984926	0.621791
	C122	C	0.615037	0.002155	0.380183
	C123	C	0.373601	0.984405	0.379060
	C124	C	0.616484	0.372000	0.009181
	C125	C	0.618578	0.616034	0.991744
	C126	C	0.373904	0.613624	0.008978
	C127	C	0.371856	0.369587	0.992153
	C128	C	0.004092	0.614084	0.380361
	C129	C	0.986158	0.614932	0.623945
	C130	C	0.003858	0.373658	0.622068
	C131	C	0.986517	0.372441	0.379220
	C132	C	0.874691	0.502381	0.122254
	C133	C	0.116158	0.484517	0.123245
	C134	C	0.114512	0.501289	0.880828
	C135	C	0.873403	0.483699	0.879216
	C136	C	0.115798	0.873483	0.508576
	C137	C	0.118778	0.117889	0.491960
	C138	C	0.874082	0.114623	0.509577
	C139	C	0.871328	0.870163	0.491464
	C140	C	0.503875	0.113375	0.879164
	C141	C	0.485910	0.113720	0.122552
	C142	C	0.503455	0.871917	0.122474
	C143	C	0.486294	0.871354	0.878277
	C144	C	0.371718	0.879681	0.678497
	C145	C	0.618689	0.106863	0.680733
	C146	C	0.615467	0.879827	0.321666
	C147	C	0.373163	0.106533	0.321115
	C148	C	0.672956	0.372035	0.888262
	C149	C	0.676685	0.617237	0.112265
	C150	C	0.315268	0.612766	0.888305
	C151	C	0.314631	0.370096	0.112914
	C152	C	0.880891	0.669509	0.381150
	C153	C	0.107974	0.674103	0.623884
	C154	C	0.880991	0.315366	0.620030
	C155	C	0.109794	0.317679	0.382324
	C156	C	0.881904	0.369980	0.679702
	C157	C	0.107517	0.617914	0.683348
	C158	C	0.882683	0.615446	0.320801
	C159	C	0.109002	0.372738	0.322547
	C160	C	0.373543	0.670531	0.887981
	C161	C	0.618036	0.673803	0.112730
	C162	C	0.615768	0.313835	0.888239
	C163	C	0.373291	0.313060	0.113308
	C164	C	0.671254	0.879254	0.379905
	C165	C	0.674642	0.107648	0.622038
	C166	C	0.315599	0.879698	0.619519
	C167	C	0.318430	0.107971	0.380251
	C168	C	0.873216	0.379642	0.179127
	C169	C	0.119940	0.606625	0.181685
	C170	C	0.116181	0.379659	0.820943
	C171	C	0.871622	0.605437	0.820639
	C172	C	0.172597	0.873542	0.387510
	C173	C	0.176586	0.118178	0.612649
	C174	C	0.816323	0.114017	0.388510
	C175	C	0.814570	0.870755	0.612495
	C176	C	0.380681	0.168670	0.880894
	C177	C	0.608500	0.171729	0.122219
	C178	C	0.380905	0.813198	0.120939
	C179	C	0.609194	0.815887	0.880491
	C180	C	0.381334	0.869614	0.179698
	C181	C	0.607446	0.116188	0.181555
	C182	C	0.381823	0.114228	0.820881
	C183	C	0.607903	0.870377	0.820438
	C184	C	0.875170	0.171021	0.388310
	C185	C	0.117534	0.174383	0.613603
	C186	C	0.115654	0.814567	0.387909
	C187	C	0.872432	0.813188	0.612392
	C188	C	0.171125	0.378333	0.879735
	C189	C	0.175207	0.606644	0.122782
	C190	C	0.816907	0.379282	0.120691
	C191	C	0.817671	0.606844	0.880588
	C192	C	0.399819	0.087727	0.599086
	C193	C	0.590681	0.899621	0.597534
	C194	C	0.591615	0.087654	0.404098
	C195	C	0.396000	0.898662	0.402093
	C196	C	0.593299	0.395978	0.093302
	C197	C	0.594674	0.591805	0.907540
	C198	C	0.398168	0.590021	0.092940
	C199	C	0.394968	0.392920	0.907803
	C200	C	0.089165	0.590902	0.404150
	C201	C	0.901361	0.589408	0.599687
	C202	C	0.088838	0.398733	0.599601
	C203	C	0.900875	0.395511	0.401424
	C204	C	0.899792	0.587523	0.099005
	C205	C	0.090453	0.399310	0.099581
	C206	C	0.090480	0.586323	0.905369
	C207	C	0.896951	0.398299	0.902330
	C208	C	0.092150	0.898076	0.592350
	C209	C	0.095047	0.094027	0.407462
	C210	C	0.897360	0.091638	0.593855
	C211	C	0.894289	0.893265	0.407175
	C212	C	0.588927	0.089416	0.902891
	C213	C	0.400640	0.089024	0.098866
	C214	C	0.588678	0.896652	0.099622
	C215	C	0.401313	0.895194	0.901619
	Zn216	Zn	0.495291	-0.007123	0.750588
	Zn217	Zn	0.494391	-0.007072	0.251723
	Zn218	Zn	0.746502	0.493599	0.001014
	Zn219	Zn	0.242865	0.492074	0.000574
	Zn220	Zn	-0.005434	0.742648	0.500858
	Zn221	Zn	-0.004491	0.244694	0.501673
	Zn222	Zn	-0.005399	0.492509	0.751815
	Zn223	Zn	-0.004225	0.493822	0.251149
	Zn224	Zn	0.495647	0.743637	0.000326
	Zn225	Zn	0.494985	0.241643	0.000906
	Zn226	Zn	0.743812	-0.006552	0.500283
	Zn227	Zn	0.246075	-0.005242	0.500039
	N228	N	0.407446	0.957141	0.680065
	N229	N	0.582993	0.029512	0.680858
	N230	N	0.581393	0.957394	0.321645
	N231	N	0.406665	0.028707	0.320249
	N232	N	0.673956	0.407216	0.964473
	N233	N	0.677164	0.582037	0.035925
	N234	N	0.315433	0.577880	0.964514
	N235	N	0.313330	0.404202	0.036342
	N236	N	0.957348	0.668701	0.417586
	N237	N	0.031485	0.672498	0.587773
	N238	N	0.957858	0.317324	0.585044
	N239	N	0.032629	0.317213	0.416867
	N240	N	0.959016	0.405445	0.681103
	N241	N	0.030432	0.582177	0.683686
	N242	N	0.960360	0.581946	0.320039
	N243	N	0.031269	0.405820	0.320430
	N244	N	0.409152	0.671297	0.963878
	N245	N	0.582607	0.673206	0.036731
	N246	N	0.581458	0.313314	0.964678
	N247	N	0.408004	0.312463	0.037306
	N248	N	0.671266	0.956310	0.415589
	N249	N	0.673184	0.030557	0.586281
	N250	N	0.317301	0.957020	0.585153
	N251	N	0.318432	0.031085	0.415531
	N252	N	0.908224	0.457223	0.180435
	N253	N	0.083924	0.529366	0.182073
	N254	N	0.081841	0.457085	0.821205
	N255	N	0.905701	0.527844	0.819659
	N256	N	0.172771	0.909556	0.463458
	N257	N	0.177718	0.084065	0.535939
	N258	N	0.815459	0.079863	0.464920
	N259	N	0.813717	0.905527	0.536334
	N260	N	0.457506	0.168481	0.916504
	N261	N	0.531765	0.170541	0.086326
	N262	N	0.457908	0.814479	0.086002
	N263	N	0.532412	0.816194	0.915612
	N264	N	0.458548	0.905104	0.180982
	N265	N	0.530212	0.080848	0.181730
	N266	N	0.459465	0.080787	0.819630
	N267	N	0.530300	0.904139	0.818826
	N268	N	0.910352	0.171626	0.464560
	N269	N	0.082541	0.174539	0.537391
	N270	N	0.081076	0.814229	0.464155
	N271	N	0.906731	0.812430	0.536145
	N272	N	0.170562	0.455160	0.916033
	N273	N	0.173406	0.529579	0.087446
	N274	N	0.817435	0.456759	0.086278
	N275	N	0.818641	0.530285	0.916296
	O276	O	0.611695	0.626850	0.451768
	H277	H	0.613386	0.634593	0.455424
	H278	H	0.607593	0.630545	0.459461
	O279	O	0.686025	0.634845	0.591350
	H280	H	0.693044	0.635816	0.586798
	H281	H	0.695463	0.623441	0.599548
	O282	O	0.990848	-0.120251	0.975694
	H283	H	1.000257	-0.118561	0.966892
	H284	H	0.982454	-0.137620	0.967026
	O285	O	0.330814	0.327533	0.430345
	H286	H	0.312472	0.332760	0.424741
	H287	H	0.346866	0.327321	0.423225
	O288	O	1.167796	0.916999	1.023204
	H289	H	1.168496	0.912452	1.025459
	H290	H	1.182676	0.935663	1.013965
	O291	O	-0.070296	1.004728	0.059831
	H292	H	-0.073978	1.011538	0.064278
	H293	H	-0.061994	1.015472	0.073369
	O294	O	0.412958	0.505975	0.384482
	H295	H	0.408495	0.514737	0.378861
	H296	H	0.409229	0.502229	0.389309
	O297	O	0.375585	0.598435	0.371728
	H298	H	0.368279	0.611201	0.373772
	H299	H	0.375279	0.592881	0.357992
	O300	O	0.419715	0.381512	0.574804
	H301	H	0.412217	0.375353	0.583080
	H302	H	0.415930	0.364325	0.590349
	O303	O	0.504610	0.668810	0.570108
	H304	H	0.524655	0.678737	0.575515
	H305	H	0.516825	0.673711	0.573152
	O306	O	0.531250	0.455701	0.386780
	H307	H	0.535379	0.469470	0.372033
	H308	H	0.524316	0.450911	0.404276
	O309	O	0.464777	0.418154	0.477181
	H310	H	0.460103	0.437434	0.466965
	H311	H	0.480970	0.405601	0.467899
	O312	O	-0.053482	-0.059358	-0.064127
	H313	H	-0.053695	-0.058699	-0.074989
	H314	H	-0.046762	-0.061737	-0.064742
	O315	O	0.376293	0.593977	0.618251
	H316	H	0.379765	0.593872	0.607142
	H317	H	0.376667	0.597552	0.623740
	O318	O	0.115910	1.100061	1.082532
	H319	H	0.128334	1.110173	1.095731
	H320	H	0.105533	1.096055	1.093899
	O321	O	0.610581	0.499054	0.497223
	H322	H	0.605609	0.496694	0.497660
	H323	H	0.619201	0.516597	0.499367
	O324	O	0.110746	1.012277	0.032253
	H325	H	0.096710	1.012461	0.039627
	H326	H	0.121662	1.016279	0.031391
	O327	O	0.544384	0.310681	0.410876
	H328	H	0.546333	0.301257	0.431257
	H329	H	0.538832	0.303581	0.400857
	O330	O	0.636887	-0.631357	1.431233
	H331	H	0.634425	-0.629991	1.417902
	H332	H	0.633425	-0.634146	1.449700
	O333	O	-0.096243	0.029290	1.080511
	H334	H	-0.101117	0.035658	1.072240
	H335	H	-0.091894	0.013851	1.076145
	O336	O	0.540913	0.547380	0.412510
	H337	H	0.547869	0.555779	0.406045
	H338	H	0.543251	0.559444	0.406224
	O339	O	0.893462	0.165961	0.017544
	H340	H	0.892056	0.156711	0.022423
	H341	H	0.880944	0.162571	0.010152
	O342	O	-0.007295	0.047237	-0.014232
	H343	H	-0.009569	0.049755	-0.013717
	H344	H	0.002279	0.050106	-0.015721
	O345	O	0.861162	0.000811	1.030527
	H346	H	0.844472	-0.009677	1.029595
	H347	H	0.861899	0.002093	1.049875
	O348	O	0.951638	0.860642	0.121219
	H349	H	0.969685	0.865598	0.123405
	H350	H	0.954921	0.854899	0.101887
	O351	O	0.381325	0.564855	0.625361
	H352	H	0.384510	0.572624	0.618865
	H353	H	0.381378	0.564387	0.632161
	O354	O	1.031215	-0.184026	0.838489
	H355	H	1.036777	-0.174624	0.839551
	H356	H	1.052175	-0.193661	0.826174
	O357	O	0.374067	0.551391	0.562477
	H358	H	0.389328	0.560550	0.560953
	H359	H	0.370586	0.557704	0.562365
	O360	O	0.634129	0.424098	0.471664
	H361	H	0.643922	0.422668	0.481322
	H362	H	0.626236	0.424167	0.487274
	O363	O	0.136878	1.100046	0.911514
	H364	H	0.140070	1.097114	0.923712
	H365	H	0.124960	1.107390	0.904402
	O366	O	0.558080	0.534472	0.417857
	H367	H	0.565093	0.528819	0.410742
	H368	H	0.558610	0.524719	0.412763
	O369	O	0.020529	0.944692	0.101819
	H370	H	0.023514	0.940264	0.086708
	H371	H	-0.001519	0.933747	0.103781
	O372	O	0.575826	0.488446	0.346453
	H373	H	0.580607	0.488495	0.344685
	H374	H	0.583095	0.473580	0.337457
	O375	O	0.474134	0.549165	0.646740
	H376	H	0.470909	0.539983	0.638516
	H377	H	0.477729	0.544158	0.651314
	O378	O	1.037341	0.996359	0.104357
	H379	H	1.028767	0.988271	0.107681
	H380	H	1.045557	0.999148	0.097392
	O381	O	1.055622	0.090521	-0.030716
	H382	H	1.040484	0.078458	-0.021462
	H383	H	1.048806	0.100239	-0.035184
	O384	O	1.080504	1.005878	-0.095077
	H385	H	1.079844	1.017039	-0.087713
	H386	H	1.070811	1.014561	-0.097631
	O387	O	-0.038565	0.068152	0.061233
	H388	H	-0.032355	0.063607	0.058163
	H389	H	-0.051543	0.080504	0.056424
	O390	O	0.142623	1.019750	-0.108474
	H391	H	0.140050	1.022622	-0.109687
	H392	H	0.150829	1.026960	-0.097380
	O393	O	1.008512	0.838554	1.092944
	H394	H	1.009624	0.845476	1.075859
	H395	H	1.012134	0.824873	1.098891
	O396	O	0.415895	0.479129	0.498996
	H397	H	0.413777	0.483120	0.515747
	H398	H	0.416770	0.475122	0.499456
	O399	O	0.049669	0.854956	0.868352
	H400	H	0.063351	0.853623	0.864018
	H401	H	0.060945	0.865471	0.879123
	O402	O	0.396082	0.319766	0.631480
	H403	H	0.392151	0.343033	0.622880
	H404	H	0.388970	0.314192	0.618756
	O405	O	0.846865	1.028343	-0.034645
	H406	H	0.841947	1.009548	-0.040381
	H407	H	0.850968	1.027170	-0.018666
	O408	O	0.886052	0.951774	0.012216
	H409	H	0.880131	0.958934	0.021782
	H410	H	0.890823	0.948037	0.002303
	O411	O	0.864088	0.149079	0.917240
	H412	H	0.872710	0.147750	0.928360
	H413	H	0.866214	0.133983	0.928596
	O414	O	0.516047	0.299537	0.624542
	H415	H	0.506633	0.293909	0.640012
	H416	H	0.495983	0.301854	0.621924
	O417	O	0.564617	0.601469	0.581778
	H418	H	0.564689	0.598168	0.574544
	H419	H	0.572400	0.595743	0.590428
