data_Molecule from HDF5

_cell_length_a		15.985017
_cell_length_b		16.282422
_cell_length_c		16.257292
_cell_angle_alpha	90.461781
_cell_angle_beta	88.290845
_cell_angle_gamma	89.740091
_symmetry_space_group_name_H-M	'P 1'
_symmetry_Int_Tables_number		1

loop_
	_symmetry_equiv_pos_as_xyz
	x,y,z

loop_
	_atom_site_label
	_atom_site_type_symbol
	_atom_site_fract_x
	_atom_site_fract_y
	_atom_site_fract_z
	H0	H	0.402930	0.848556	0.721353
	H1	H	0.603085	0.174753	0.720436
	H2	H	0.611875	0.850658	0.283193
	H3	H	0.404644	0.175398	0.292532
	H4	H	0.729708	0.411594	0.841803
	H5	H	0.710777	0.607900	0.171888
	H6	H	0.301351	0.607706	0.838606
	H7	H	0.289184	0.417859	0.167873
	H8	H	0.840307	0.725659	0.412186
	H9	H	0.171520	0.727481	0.600321
	H10	H	0.839132	0.301613	0.608757
	H11	H	0.171161	0.295545	0.396450
	H12	H	0.842226	0.415840	0.725712
	H13	H	0.174911	0.611634	0.711117
	H14	H	0.838941	0.610209	0.299437
	H15	H	0.169951	0.407659	0.282036
	H16	H	0.411688	0.726694	0.840073
	H17	H	0.605008	0.732684	0.166205
	H18	H	0.615687	0.293671	0.841608
	H19	H	0.399966	0.298927	0.167433
	H20	H	0.725589	0.849933	0.400245
	H21	H	0.711881	0.178604	0.598597
	H22	H	0.289251	0.848533	0.604798
	H23	H	0.295325	0.177737	0.415224
	H24	H	0.901733	0.349363	0.225070
	H25	H	0.105545	0.674310	0.221395
	H26	H	0.115480	0.351154	0.779649
	H27	H	0.909018	0.676468	0.795961
	H28	H	0.226257	0.912971	0.342216
	H29	H	0.209417	0.110392	0.670564
	H30	H	0.799236	0.109894	0.338534
	H31	H	0.786211	0.920075	0.668420
	H32	H	0.341154	0.228791	0.909214
	H33	H	0.672158	0.228042	0.100247
	H34	H	0.340106	0.799646	0.108012
	H35	H	0.673099	0.797321	0.897592
	H36	H	0.340804	0.913521	0.223891
	H37	H	0.672700	0.112779	0.213595
	H38	H	0.337561	0.108769	0.800252
	H39	H	0.670889	0.909717	0.781429
	H40	H	0.907104	0.230554	0.342140
	H41	H	0.102310	0.231669	0.666510
	H42	H	0.114537	0.794118	0.343133
	H43	H	0.896885	0.797932	0.668485
	H44	H	0.225283	0.347925	0.899814
	H45	H	0.214299	0.677353	0.097642
	H46	H	0.791247	0.347882	0.106420
	H47	H	0.797915	0.676832	0.915755
	H48	H	0.401288	0.133751	0.610566
	H49	H	0.588002	0.895593	0.600436
	H50	H	0.594955	0.129247	0.406743
	H51	H	0.421856	0.896458	0.410261
	H52	H	0.589670	0.426535	0.117621
	H53	H	0.593565	0.599368	0.891480
	H54	H	0.411530	0.600969	0.118130
	H55	H	0.415631	0.425187	0.887207
	H56	H	0.122519	0.597291	0.417545
	H57	H	0.887687	0.606055	0.600705
	H58	H	0.122161	0.426140	0.586987
	H59	H	0.884724	0.412027	0.420795
	H60	H	0.128592	0.420893	0.598014
	H61	H	0.887457	0.603247	0.605723
	H62	H	0.126690	0.598363	0.401006
	H63	H	0.890928	0.427700	0.422544
	H64	H	0.415789	0.614604	0.122279
	H65	H	0.606525	0.617466	0.883295
	H66	H	0.590707	0.408949	0.124309
	H67	H	0.429846	0.415193	0.888392
	H68	H	0.601361	0.130329	0.412192
	H69	H	0.593124	0.899421	0.583497
	H70	H	0.415048	0.128983	0.608940
	H71	H	0.415918	0.897455	0.417857
	H72	H	0.914173	0.629328	0.106263
	H73	H	0.096385	0.396578	0.089028
	H74	H	0.107098	0.629004	0.912960
	H75	H	0.918403	0.391526	0.904183
	H76	H	0.078958	0.915578	0.620107
	H77	H	0.109548	0.093476	0.387498
	H78	H	0.908403	0.112535	0.622441
	H79	H	0.918124	0.919739	0.386987
	H80	H	0.622740	0.098797	0.914090
	H81	H	0.387693	0.099040	0.107595
	H82	H	0.628970	0.912195	0.094320
	H83	H	0.383226	0.907181	0.915043
	H84	H	0.622122	0.920695	0.081176
	H85	H	0.384288	0.113845	0.101626
	H86	H	0.624652	0.097405	0.904036
	H87	H	0.390974	0.922063	0.923730
	H88	H	0.904449	0.108219	0.623070
	H89	H	0.088839	0.103610	0.391161
	H90	H	0.101618	0.908267	0.628791
	H91	H	0.921366	0.916906	0.388096
	H92	H	0.105279	0.632200	0.902677
	H93	H	0.100920	0.393586	0.095993
	H94	H	0.909881	0.628867	0.101309
	H95	H	0.931306	0.399909	0.915452
	H96	H	0.406032	0.127707	0.597487
	H97	H	0.604664	0.892806	0.594902
	H98	H	0.603745	0.132413	0.405263
	H99	H	0.412261	0.893459	0.409479
	H100	H	0.605320	0.420025	0.124022
	H101	H	0.617567	0.597120	0.886334
	H102	H	0.401442	0.609988	0.123327
	H103	H	0.415217	0.408331	0.882153
	H104	H	0.127500	0.610767	0.409432
	H105	H	0.884705	0.608712	0.606123
	H106	H	0.125994	0.413101	0.585395
	H107	H	0.884863	0.423229	0.408540
	H108	H	0.906814	0.629863	0.107543
	H109	H	0.091631	0.396092	0.097253
	H110	H	0.097403	0.627462	0.909383
	H111	H	0.913703	0.395762	0.921197
	H112	H	0.098215	0.932064	0.621068
	H113	H	0.107577	0.115550	0.382053
	H114	H	0.910339	0.105953	0.620328
	H115	H	0.918956	0.914671	0.387330
	H116	H	0.626115	0.105784	0.908354
	H117	H	0.391659	0.103198	0.092157
	H118	H	0.624468	0.928438	0.096506
	H119	H	0.385460	0.923290	0.907059
	C120	C	0.379634	0.021427	0.631525
	C121	C	0.623692	1.004243	0.622540
	C122	C	0.630660	0.022287	0.378653
	C123	C	0.386476	1.003941	0.385852
	C124	C	0.629311	0.389059	0.013734
	C125	C	0.630104	0.633918	0.996093
	C126	C	0.385463	0.634481	0.012310
	C127	C	0.386507	0.389963	0.994700
	C128	C	0.015124	0.631481	0.384739
	C129	C	0.997232	0.634402	0.627855
	C130	C	0.015897	0.392064	0.624126
	C131	C	0.996533	0.390431	0.383350
	C132	C	0.881583	0.520722	0.132211
	C133	C	0.125743	0.503414	0.123712
	C134	C	0.133350	0.521486	0.878063
	C135	C	0.890275	0.503915	0.887063
	C136	C	0.127592	0.889431	0.515119
	C137	C	0.126787	0.133744	0.495601
	C138	C	0.882868	0.136198	0.513202
	C139	C	0.884832	0.890487	0.495969
	C140	C	0.514754	0.131133	0.883690
	C141	C	0.497647	0.134302	0.126204
	C142	C	0.515543	0.891538	0.123940
	C143	C	0.496803	0.888957	0.881972
	C144	C	0.382224	0.897676	0.684249
	C145	C	0.621765	0.126909	0.680427
	C146	C	0.631135	0.899350	0.321827
	C147	C	0.386198	0.126846	0.331178
	C148	C	0.690324	0.390770	0.890834
	C149	C	0.677535	0.630043	0.121173
	C150	C	0.336037	0.629478	0.888046
	C151	C	0.327341	0.395816	0.118654
	C152	C	0.889931	0.687892	0.390586
	C153	C	0.122545	0.689420	0.621424
	C154	C	0.889725	0.338484	0.627428
	C155	C	0.121242	0.333586	0.379161
	C156	C	0.891203	0.395024	0.685606
	C157	C	0.123894	0.632148	0.676820
	C158	C	0.889231	0.630389	0.334598
	C159	C	0.120577	0.389496	0.321972
	C160	C	0.391247	0.688533	0.888798
	C161	C	0.625048	0.692161	0.118427
	C162	C	0.633342	0.332276	0.890572
	C163	C	0.382652	0.336608	0.118414
	C164	C	0.687625	0.899189	0.380135
	C165	C	0.676245	0.128684	0.619945
	C166	C	0.325681	0.897661	0.626354
	C167	C	0.331538	0.128060	0.392044
	C168	C	0.882727	0.397899	0.186745
	C169	C	0.124664	0.625736	0.181579
	C170	C	0.133793	0.399224	0.819573
	C171	C	0.890495	0.627497	0.833584
	C172	C	0.188011	0.891706	0.391776
	C173	C	0.175614	0.131599	0.620419
	C174	C	0.833628	0.131741	0.388450
	C175	C	0.824308	0.896639	0.619067
	C176	C	0.389937	0.188774	0.889178
	C177	C	0.622523	0.190086	0.121304
	C178	C	0.390249	0.836435	0.126861
	C179	C	0.622629	0.834432	0.879118
	C180	C	0.390725	0.893305	0.184420
	C181	C	0.622689	0.132954	0.177868
	C182	C	0.388202	0.129463	0.834810
	C183	C	0.621610	0.890576	0.821414
	C184	C	0.886924	0.191850	0.390406
	C185	C	0.121946	0.191586	0.618405
	C186	C	0.131836	0.832737	0.391960
	C187	C	0.880026	0.836424	0.619309
	C188	C	0.188904	0.397814	0.879039
	C189	C	0.178851	0.627528	0.119717
	C190	C	0.827380	0.397279	0.127898
	C191	C	0.835099	0.627672	0.893339
	C192	C	0.401095	0.107772	0.611609
	C193	C	0.601774	0.918259	0.599673
	C194	C	0.606961	0.108414	0.401415
	C195	C	0.409854	0.917738	0.406470
	C196	C	0.602852	0.411712	0.099854
	C197	C	0.611428	0.611305	0.909443
	C198	C	0.404123	0.614489	0.098664
	C199	C	0.412550	0.410107	0.908432
	C200	C	0.102862	0.608881	0.403811
	C201	C	0.909503	0.612672	0.609657
	C202	C	0.102820	0.413674	0.597723
	C203	C	0.909281	0.414006	0.409842
	C204	C	0.903618	0.607109	0.111162
	C205	C	0.102986	0.417672	0.100823
	C206	C	0.110129	0.607338	0.901502
	C207	C	0.914182	0.418010	0.907570
	C208	C	0.100737	0.912047	0.600947
	C209	C	0.107767	0.110979	0.409404
	C210	C	0.902028	0.115231	0.599654
	C211	C	0.911708	0.910963	0.409737
	C212	C	0.602019	0.107544	0.903047
	C213	C	0.410654	0.112058	0.106327
	C214	C	0.602654	0.913826	0.098087
	C215	C	0.409205	0.910995	0.907787
	Zn216	Zn	0.504168	0.011486	0.755502
	Zn217	Zn	0.507346	0.012877	0.253293
	Zn218	Zn	0.757912	0.511503	0.007172
	Zn219	Zn	0.257947	0.511764	0.002262
	Zn220	Zn	0.006297	0.760087	0.505586
	Zn221	Zn	0.005585	0.262857	0.503624
	Zn222	Zn	0.008958	0.513696	0.753610
	Zn223	Zn	0.004809	0.511282	0.256811
	Zn224	Zn	0.506912	0.762768	0.003572
	Zn225	Zn	0.506971	0.260648	0.003863
	Zn226	Zn	0.756064	0.014365	0.502456
	Zn227	Zn	0.254983	0.012968	0.507249
	N228	N	0.414683	0.975663	0.687944
	N229	N	0.589856	0.048481	0.682327
	N230	N	0.596645	0.977051	0.320590
	N231	N	0.419621	0.048623	0.327128
	N232	N	0.687918	0.425265	0.968505
	N233	N	0.680883	0.594513	0.043947
	N234	N	0.332107	0.596528	0.965627
	N235	N	0.329188	0.428057	0.040526
	N236	N	0.969388	0.688883	0.420871
	N237	N	0.042830	0.691449	0.591976
	N238	N	0.968065	0.336557	0.589656
	N239	N	0.042949	0.334221	0.416931
	N240	N	0.970488	0.427757	0.683785
	N241	N	0.044898	0.598765	0.681116
	N242	N	0.968201	0.596058	0.330737
	N243	N	0.041824	0.424171	0.324568
	N244	N	0.421239	0.691764	0.967105
	N245	N	0.596290	0.694682	0.039686
	N246	N	0.596083	0.331223	0.968072
	N247	N	0.418586	0.332750	0.040385
	N248	N	0.687499	0.976752	0.414512
	N249	N	0.677578	0.051477	0.584700
	N250	N	0.323876	0.975657	0.594263
	N251	N	0.331644	0.050588	0.425501
	N252	N	0.915697	0.475827	0.189492
	N253	N	0.092558	0.547495	0.184142
	N254	N	0.100348	0.477259	0.818493
	N255	N	0.924387	0.549596	0.829747
	N256	N	0.185376	0.926361	0.469305
	N257	N	0.178758	0.096117	0.543178
	N258	N	0.830802	0.097761	0.465795
	N259	N	0.827432	0.929662	0.541285
	N260	N	0.469678	0.190078	0.918719
	N261	N	0.543693	0.191164	0.089906
	N262	N	0.468918	0.835090	0.089777
	N263	N	0.544238	0.833522	0.916423
	N264	N	0.469798	0.926671	0.182894
	N265	N	0.544102	0.098921	0.181167
	N266	N	0.466797	0.094288	0.831195
	N267	N	0.542279	0.923967	0.823052
	N268	N	0.916886	0.194778	0.468875
	N269	N	0.092649	0.193379	0.539673
	N270	N	0.094929	0.831218	0.469615
	N271	N	0.916924	0.832417	0.541644
	N272	N	0.188822	0.474731	0.914797
	N273	N	0.179848	0.550277	0.084437
	N274	N	0.826529	0.474730	0.094658
	N275	N	0.834741	0.549817	0.925907
	O276	O	0.533291	0.589148	0.560722
	H277	H	0.543857	0.592629	0.560303
	H278	H	0.530934	0.601240	0.547962
	O279	O	0.425062	0.528835	0.559194
	H280	H	0.422858	0.525737	0.565546
	H281	H	0.427480	0.534521	0.568127
	O282	O	0.964801	0.960742	-0.084130
	H283	H	0.963782	0.957062	-0.080846
	H284	H	0.979558	0.964192	-0.087998
	O285	O	1.048399	0.072862	1.033371
	H286	H	1.049435	0.056217	1.024189
	H287	H	1.042179	0.077215	1.039275
	O288	O	-0.031540	0.189343	-0.056248
	H289	H	-0.035157	0.185515	-0.055224
	H290	H	-0.017312	0.184486	-0.053954
	O291	O	0.584006	0.427634	0.357808
	H292	H	0.587053	0.423032	0.337921
	H293	H	0.592181	0.433007	0.357787
	O294	O	0.538260	0.375835	0.531567
	H295	H	0.540988	0.369845	0.526407
	H296	H	0.538048	0.364157	0.516943
	O297	O	-0.072931	-0.000810	1.091933
	H298	H	-0.078777	0.007094	1.085081
	H299	H	-0.067219	0.012477	1.096000
	O300	O	0.505176	0.402234	0.412551
	H301	H	0.515385	0.394439	0.403429
	H302	H	0.495286	0.408410	0.404441
	O303	O	1.043218	0.929964	0.132634
	H304	H	1.026405	0.917371	0.134891
	H305	H	1.033151	0.923057	0.126050
	O306	O	-0.629808	1.475777	0.556476
	H307	H	-0.645310	1.474833	0.572623
	H308	H	-0.619479	1.466578	0.553782
	O309	O	0.493994	0.617260	0.531337
	H310	H	0.496737	0.609168	0.517462
	H311	H	0.511525	0.628776	0.528061
	O312	O	-0.072897	-0.046829	-0.077223
	H313	H	-0.063177	-0.042961	-0.081960
	H314	H	-0.064154	-0.060682	-0.092693
	O315	O	0.981497	-0.057718	-0.077384
	H316	H	0.995139	-0.065247	-0.090514
	H317	H	0.975176	-0.045936	-0.069004
	O318	O	0.863109	0.976112	1.035571
	H319	H	0.867211	0.972948	1.037547
	H320	H	0.869267	0.973562	1.028854
	O321	O	0.093762	-0.046207	0.967463
	H322	H	0.083120	-0.047473	0.971225
	H323	H	0.094485	-0.051714	0.957342
	O324	O	0.549806	0.547298	0.421242
	H325	H	0.557521	0.545258	0.431104
	H326	H	0.549185	0.542086	0.421701
	O327	O	0.010107	0.161749	-0.006116
	H328	H	0.026275	0.172189	-0.011501
	H329	H	0.005341	0.167208	0.007492
	O330	O	0.485208	0.398533	0.575460
	H331	H	0.485088	0.404274	0.567192
	H332	H	0.484807	0.403550	0.566998
	O333	O	-0.475368	0.537894	0.587398
	H334	H	-0.483478	0.531444	0.575340
	H335	H	-0.480147	0.554343	0.585226
	O336	O	0.120640	0.120194	0.096924
	H337	H	0.132690	0.121883	0.114156
	H338	H	0.124264	0.118711	0.103437
	O339	O	1.068466	-0.058717	1.009692
	H340	H	1.072332	-0.066207	0.996995
	H341	H	1.056143	-0.062416	1.006031
	O342	O	0.936441	1.069453	1.050215
	H343	H	0.947035	1.069365	1.048348
	H344	H	0.942513	1.070319	1.038978
	O345	O	0.955323	0.928532	0.055366
	H346	H	0.937737	0.924681	0.063213
	H347	H	0.937586	0.941982	0.054953
	O348	O	0.555874	0.577580	0.465174
	H349	H	0.545506	0.574429	0.469550
	H350	H	0.543240	0.578749	0.460954
	O351	O	0.599519	0.463903	0.466346
	H352	H	0.600050	0.476791	0.474705
	H353	H	0.618588	0.456939	0.467306
	O354	O	0.439926	0.493108	0.555664
	H355	H	0.438034	0.486136	0.561130
	H356	H	0.437397	0.505132	0.555345
	O357	O	1.092949	-0.028306	0.995810
	H358	H	1.084313	-0.030677	1.007534
	H359	H	1.079820	-0.036105	1.002414
	O360	O	0.418738	0.497742	0.487613
	H361	H	0.404609	0.485358	0.500704
	H362	H	0.412368	0.488035	0.487577
	O363	O	0.955744	-0.025022	1.103597
	H364	H	0.943369	-0.020735	1.099011
	H365	H	0.954693	-0.032153	1.099166
	O366	O	0.476888	0.633111	0.383534
	H367	H	0.479308	0.636861	0.381348
	H368	H	0.469403	0.627413	0.387454
	O369	O	1.113926	-0.064941	0.941133
	H370	H	1.126023	-0.073184	0.934885
	H371	H	1.107676	-0.062721	0.952480
	O372	O	0.054138	0.059127	0.010243
	H373	H	0.061847	0.062062	0.000140
	H374	H	0.051999	0.047920	0.016711
	O375	O	0.954648	-0.020620	-0.011610
	H376	H	0.946360	-0.016761	-0.014404
	H377	H	0.956399	-0.015044	-0.011180
	O378	O	0.498308	0.565814	0.491720
	H379	H	0.497139	0.565206	0.496922
	H380	H	0.498937	0.563769	0.497308
	O381	O	0.550519	0.513735	0.559364
	H382	H	0.553559	0.502806	0.559313
	H383	H	0.540827	0.507244	0.563094
