data_Molecule from HDF5

_cell_length_a		16.550489
_cell_length_b		16.541861
_cell_length_c		16.456994
_cell_angle_alpha	90.077789
_cell_angle_beta	89.895890
_cell_angle_gamma	90.133779
_symmetry_space_group_name_H-M	'P 1'
_symmetry_Int_Tables_number		1

loop_
	_symmetry_equiv_pos_as_xyz
	x,y,z

loop_
	_atom_site_label
	_atom_site_type_symbol
	_atom_site_fract_x
	_atom_site_fract_y
	_atom_site_fract_z
	H0	H	0.390976	0.849073	0.716167
	H1	H	0.601617	0.163113	0.715414
	H2	H	0.604149	0.849164	0.271118
	H3	H	0.393798	0.162797	0.273042
	H4	H	0.717800	0.400972	0.837053
	H5	H	0.717844	0.611603	0.152218
	H6	H	0.278785	0.607884	0.834655
	H7	H	0.273480	0.400403	0.151073
	H8	H	0.841041	0.729711	0.385925
	H9	H	0.152631	0.727653	0.598287
	H10	H	0.838359	0.284334	0.599083
	H11	H	0.153513	0.286242	0.390251
	H12	H	0.838262	0.402565	0.713934
	H13	H	0.154858	0.608346	0.710945
	H14	H	0.839883	0.611938	0.270919
	H15	H	0.154066	0.405149	0.275842
	H16	H	0.396122	0.724406	0.835523
	H17	H	0.601208	0.726670	0.151896
	H18	H	0.600238	0.285703	0.836353
	H19	H	0.389000	0.283574	0.150956
	H20	H	0.719684	0.848876	0.387131
	H21	H	0.719318	0.162400	0.600096
	H22	H	0.273171	0.850275	0.600793
	H23	H	0.276049	0.162685	0.389040
	H24	H	0.892395	0.347549	0.213165
	H25	H	0.098737	0.663167	0.213662
	H26	H	0.097186	0.346676	0.775079
	H27	H	0.891818	0.662979	0.772136
	H28	H	0.217050	0.901912	0.337347
	H29	H	0.218016	0.113164	0.651504
	H30	H	0.777469	0.108479	0.334319
	H31	H	0.773179	0.898886	0.650917
	H32	H	0.339655	0.224423	0.891782
	H33	H	0.652113	0.232429	0.103307
	H34	H	0.340729	0.786162	0.098639
	H35	H	0.655789	0.786002	0.890153
	H36	H	0.341056	0.902675	0.214700
	H37	H	0.655352	0.111826	0.214977
	H38	H	0.339595	0.106780	0.776220
	H39	H	0.655607	0.903697	0.774904
	H40	H	0.892358	0.225126	0.334908
	H41	H	0.098680	0.225190	0.652720
	H42	H	0.099905	0.786476	0.337327
	H43	H	0.887853	0.781661	0.650942
	H44	H	0.214559	0.347435	0.891156
	H45	H	0.216176	0.663080	0.097697
	H46	H	0.773299	0.348702	0.100314
	H47	H	0.776346	0.663909	0.890154
	H48	H	0.408174	0.118552	0.584781
	H49	H	0.580929	0.893463	0.585691
	H50	H	0.586258	0.116264	0.410415
	H51	H	0.408924	0.892929	0.401623
	H52	H	0.593618	0.415742	0.110359
	H53	H	0.589889	0.595214	0.879594
	H54	H	0.400645	0.594923	0.108997
	H55	H	0.404959	0.412796	0.879218
	H56	H	0.107501	0.591845	0.403799
	H57	H	0.885077	0.591443	0.581529
	H58	H	0.107354	0.418317	0.581697
	H59	H	0.879530	0.412685	0.397392
	H60	H	0.110211	0.414168	0.587512
	H61	H	0.882552	0.594002	0.586081
	H62	H	0.108845	0.597492	0.404510
	H63	H	0.883869	0.409602	0.410672
	H64	H	0.409125	0.591721	0.105497
	H65	H	0.585962	0.591655	0.882796
	H66	H	0.582655	0.429966	0.102575
	H67	H	0.404830	0.418292	0.881122
	H68	H	0.591507	0.119557	0.404811
	H69	H	0.585071	0.896001	0.577880
	H70	H	0.406743	0.118719	0.584193
	H71	H	0.410888	0.895819	0.408497
	H72	H	0.908195	0.615730	0.077575
	H73	H	0.087254	0.393691	0.079418
	H74	H	0.097107	0.621565	0.902330
	H75	H	0.907283	0.394935	0.906941
	H76	H	0.083003	0.918741	0.607738
	H77	H	0.088577	0.096574	0.380145
	H78	H	0.910544	0.092412	0.604627
	H79	H	0.911395	0.911413	0.381366
	H80	H	0.607553	0.092308	0.909353
	H81	H	0.385812	0.092869	0.086741
	H82	H	0.613240	0.913892	0.087104
	H83	H	0.381101	0.902892	0.903249
	H84	H	0.609756	0.913517	0.076913
	H85	H	0.385144	0.098028	0.082388
	H86	H	0.611553	0.095023	0.900218
	H87	H	0.389386	0.917026	0.915211
	H88	H	0.907814	0.098591	0.607361
	H89	H	0.087557	0.094533	0.380157
	H90	H	0.084622	0.915482	0.608629
	H91	H	0.903260	0.918986	0.380789
	H92	H	0.082950	0.620717	0.894430
	H93	H	0.087766	0.391248	0.086111
	H94	H	0.902945	0.620066	0.084479
	H95	H	0.905490	0.393593	0.905357
	H96	H	0.406995	0.118815	0.585596
	H97	H	0.590065	0.892490	0.584546
	H98	H	0.583804	0.117211	0.402145
	H99	H	0.403827	0.893227	0.407547
	H100	H	0.574581	0.411436	0.105915
	H101	H	0.584013	0.596880	0.881061
	H102	H	0.408216	0.600741	0.108876
	H103	H	0.409558	0.415068	0.882603
	H104	H	0.105990	0.594745	0.409264
	H105	H	0.882923	0.596923	0.581290
	H106	H	0.109030	0.410744	0.580680
	H107	H	0.885700	0.422414	0.405540
	H108	H	0.912367	0.617544	0.086147
	H109	H	0.081867	0.393636	0.083959
	H110	H	0.084073	0.616072	0.909974
	H111	H	0.907922	0.394797	0.904726
	H112	H	0.086165	0.918367	0.608025
	H113	H	0.086107	0.095913	0.381437
	H114	H	0.903508	0.092665	0.606595
	H115	H	0.913150	0.921689	0.384975
	H116	H	0.611485	0.101808	0.907664
	H117	H	0.387163	0.091633	0.080241
	H118	H	0.608293	0.922863	0.082425
	H119	H	0.384930	0.921695	0.896088
	C120	C	0.374875	0.014806	0.616518
	C121	C	0.618434	0.997560	0.615564
	C122	C	0.619119	0.013901	0.372774
	C123	C	0.376204	0.997734	0.373384
	C124	C	0.616624	0.385754	0.002462
	C125	C	0.618614	0.627000	0.985616
	C126	C	0.375718	0.626599	0.002737
	C127	C	0.373766	0.383707	0.985158
	C128	C	0.004302	0.627150	0.372816
	C129	C	0.987565	0.626549	0.614586
	C130	C	0.004450	0.383400	0.615309
	C131	C	0.987374	0.384596	0.373201
	C132	C	0.875067	0.514197	0.115579
	C133	C	0.117211	0.496855	0.114888
	C134	C	0.117869	0.514027	0.871983
	C135	C	0.875010	0.497975	0.872835
	C136	C	0.116823	0.885421	0.503800
	C137	C	0.118005	0.127549	0.485266
	C138	C	0.875617	0.126409	0.501670
	C139	C	0.875165	0.884040	0.485683
	C140	C	0.505788	0.126821	0.874129
	C141	C	0.489168	0.127828	0.115949
	C142	C	0.506903	0.884532	0.115159
	C143	C	0.489161	0.883446	0.872938
	C144	C	0.372387	0.896554	0.676452
	C145	C	0.620243	0.115544	0.675651
	C146	C	0.621707	0.896124	0.311675
	C147	C	0.375317	0.115823	0.313435
	C148	C	0.677290	0.383048	0.884225
	C149	C	0.677920	0.629808	0.104671
	C150	C	0.317855	0.627174	0.882612
	C151	C	0.313605	0.381901	0.103931
	C152	C	0.887401	0.688652	0.368640
	C153	C	0.105760	0.686946	0.616461
	C154	C	0.885723	0.324450	0.617251
	C155	C	0.106430	0.326237	0.371666
	C156	C	0.885672	0.383042	0.674552
	C157	C	0.106794	0.627674	0.672541
	C158	C	0.886766	0.630133	0.311417
	C159	C	0.106656	0.384926	0.314642
	C160	C	0.375880	0.684978	0.882812
	C161	C	0.620097	0.687065	0.104527
	C162	C	0.618682	0.325979	0.883712
	C163	C	0.371081	0.324069	0.103807
	C164	C	0.679336	0.896028	0.369429
	C165	C	0.678883	0.115265	0.618082
	C166	C	0.314039	0.896959	0.618975
	C167	C	0.316526	0.115683	0.370909
	C168	C	0.873169	0.395160	0.174560
	C169	C	0.117821	0.615962	0.173805
	C170	C	0.117011	0.394420	0.814194
	C171	C	0.873244	0.615894	0.812405
	C172	C	0.176810	0.883449	0.384832
	C173	C	0.177517	0.130628	0.604161
	C174	C	0.816700	0.127386	0.382313
	C175	C	0.813581	0.880729	0.603959
	C176	C	0.386735	0.184818	0.872965
	C177	C	0.605864	0.190744	0.120319
	C178	C	0.388291	0.825180	0.117509
	C179	C	0.608342	0.825603	0.871674
	C180	C	0.388380	0.883439	0.175023
	C181	C	0.607528	0.130488	0.175754
	C182	C	0.386816	0.126511	0.815766
	C183	C	0.608395	0.884118	0.814460
	C184	C	0.873949	0.185514	0.382488
	C185	C	0.118201	0.186469	0.604753
	C186	C	0.118521	0.826111	0.384712
	C187	C	0.870394	0.822294	0.603597
	C188	C	0.175272	0.394737	0.871895
	C189	C	0.176057	0.615886	0.116089
	C190	C	0.814122	0.395809	0.118085
	C191	C	0.815720	0.616410	0.871027
	C192	C	0.400060	0.097229	0.591865
	C193	C	0.592764	0.915153	0.589891
	C194	C	0.594277	0.096234	0.398504
	C195	C	0.400853	0.915333	0.398616
	C196	C	0.590934	0.411420	0.084899
	C197	C	0.593839	0.601720	0.902653
	C198	C	0.399243	0.602795	0.086086
	C199	C	0.399057	0.408385	0.902295
	C200	C	0.086041	0.601905	0.398486
	C201	C	0.904938	0.601465	0.589903
	C202	C	0.087355	0.407537	0.590488
	C203	C	0.904707	0.408242	0.397470
	C204	C	0.900647	0.596249	0.090326
	C205	C	0.092767	0.414352	0.090432
	C206	C	0.094664	0.597581	0.895346
	C207	C	0.899737	0.415903	0.898340
	C208	C	0.091664	0.910587	0.586559
	C209	C	0.094116	0.102838	0.402247
	C210	C	0.900178	0.101747	0.584599
	C211	C	0.901613	0.910025	0.403833
	C212	C	0.588457	0.103269	0.898526
	C213	C	0.407440	0.101810	0.090411
	C214	C	0.589069	0.909408	0.089622
	C215	C	0.406524	0.907021	0.897714
	Zn216	Zn	0.497238	0.005380	0.744877
	Zn217	Zn	0.498586	0.005729	0.244287
	Zn218	Zn	0.746211	0.506121	-0.005298
	Zn219	Zn	0.246652	0.505998	-0.006266
	Zn220	Zn	-0.004184	0.756012	0.494447
	Zn221	Zn	-0.004014	0.255344	0.493501
	Zn222	Zn	-0.003789	0.506048	0.743108
	Zn223	Zn	-0.004004	0.505865	0.244070
	Zn224	Zn	0.497815	0.754845	-0.006045
	Zn225	Zn	0.496500	0.256167	-0.005475
	Zn226	Zn	0.747532	0.004950	0.493792
	Zn227	Zn	0.246102	0.006530	0.495069
	N228	N	0.409531	0.970801	0.675121
	N229	N	0.583511	0.040977	0.674166
	N230	N	0.585323	0.970639	0.313408
	N231	N	0.411918	0.041416	0.315063
	N232	N	0.676135	0.419560	0.959299
	N233	N	0.677027	0.593177	0.029765
	N234	N	0.317324	0.592053	0.958168
	N235	N	0.315259	0.418221	0.028968
	N236	N	0.961345	0.686862	0.406232
	N237	N	0.030262	0.686879	0.581729
	N238	N	0.960694	0.324489	0.581163
	N239	N	0.031276	0.325758	0.407035
	N240	N	0.960629	0.418859	0.673359
	N241	N	0.032166	0.591146	0.671741
	N242	N	0.960358	0.592408	0.313920
	N243	N	0.031605	0.420223	0.315098
	N244	N	0.410981	0.685037	0.958521
	N245	N	0.583894	0.685369	0.029494
	N246	N	0.581871	0.327461	0.958426
	N247	N	0.408004	0.325077	0.029029
	N248	N	0.677745	0.970264	0.406923
	N249	N	0.677980	0.040595	0.581468
	N250	N	0.315370	0.971552	0.582519
	N251	N	0.317099	0.041200	0.407612
	N252	N	0.910131	0.469698	0.173443
	N253	N	0.081992	0.541050	0.173299
	N254	N	0.082278	0.469816	0.813771
	N255	N	0.909446	0.541315	0.813401
	N256	N	0.175975	0.919532	0.460000
	N257	N	0.177794	0.094805	0.528945
	N258	N	0.817511	0.091360	0.457491
	N259	N	0.816135	0.918210	0.529642
	N260	N	0.461772	0.185206	0.908482
	N261	N	0.531275	0.189240	0.083937
	N262	N	0.462869	0.825695	0.080931
	N263	N	0.533191	0.824988	0.907128
	N264	N	0.463156	0.919383	0.173907
	N265	N	0.533828	0.092148	0.173409
	N266	N	0.461734	0.091134	0.816307
	N267	N	0.533327	0.919202	0.815030
	N268	N	0.909554	0.185326	0.457850
	N269	N	0.081987	0.184971	0.529680
	N270	N	0.082100	0.827070	0.459705
	N271	N	0.908037	0.824258	0.529138
	N272	N	0.175962	0.470240	0.906909
	N273	N	0.176015	0.540875	0.080434
	N274	N	0.814820	0.470829	0.082382
	N275	N	0.816642	0.541977	0.907912
	O276	O	0.789759	0.951862	-0.060756
	H277	H	0.792906	0.962190	-0.066495
	H278	H	0.797142	0.943993	-0.061050
	O279	O	-0.210581	-0.020797	1.200122
	H280	H	-0.211200	-0.033025	1.217188
	H281	H	-0.225800	-0.021449	1.187726
	O282	O	0.691776	0.689797	0.686284
	H283	H	0.700124	0.709586	0.684719
	H284	H	0.657914	0.686062	0.682411
	O285	O	0.304732	0.337690	0.305935
	H286	H	0.303229	0.342304	0.326022
	H287	H	0.318605	0.363759	0.315322
	O288	O	0.912866	-0.204173	0.994742
	H289	H	0.909778	-0.200102	0.997545
	H290	H	0.910340	-0.210652	1.003188
	O291	O	0.715119	0.539209	0.472044
	H292	H	0.719030	0.526814	0.471577
	H293	H	0.705841	0.537149	0.470393
	O294	O	-0.189098	0.051133	0.101505
	H295	H	-0.182001	0.032737	0.083333
	H296	H	-0.198874	0.064179	0.093659
	O297	O	1.009014	-0.029832	0.175534
	H298	H	1.014700	-0.008030	0.194084
	H299	H	0.999787	-0.014219	0.164005
	O300	O	-0.010807	-0.123996	-0.114755
	H301	H	-0.005201	-0.131507	-0.137410
	H302	H	0.010128	-0.110041	-0.095858
	O303	O	-0.206377	0.203962	-0.204581
	H304	H	-0.191016	0.185314	-0.200659
	H305	H	-0.226158	0.220807	-0.204741
	O306	O	0.809542	0.046325	-0.174124
	H307	H	0.806094	0.053967	-0.193014
	H308	H	0.824777	0.043490	-0.176613
	O309	O	0.644242	0.309987	0.297643
	H310	H	0.648339	0.337432	0.307164
	H311	H	0.609073	0.311129	0.292571
	O312	O	0.032131	0.222051	0.215405
	H313	H	0.029279	0.245530	0.230503
	H314	H	0.033472	0.225943	0.212619
	O315	O	0.697732	0.708270	0.454609
	H316	H	0.708323	0.715372	0.463074
	H317	H	0.701822	0.684933	0.453816
	O318	O	0.989702	1.021142	-0.218686
	H319	H	0.988689	1.019139	-0.218436
	H320	H	0.994989	0.995848	-0.225361
	O321	O	0.112848	1.182613	0.852547
	H322	H	0.096604	1.158396	0.839570
	H323	H	0.098710	1.176575	0.869882
	O324	O	0.980601	-0.200128	1.145051
	H325	H	0.973974	-0.214127	1.160115
	H326	H	0.973017	-0.170917	1.144911
	O327	O	0.666880	0.680275	0.396693
	H328	H	0.673044	0.687140	0.413430
	H329	H	0.674523	0.674145	0.409823
	O330	O	0.464146	0.714961	0.287510
	H331	H	0.477992	0.719985	0.301385
	H332	H	0.467056	0.726634	0.276271
	O333	O	0.620949	0.472594	0.485352
	H334	H	0.628392	0.460084	0.496301
	H335	H	0.611868	0.480015	0.480388
	O336	O	0.430380	0.571510	0.699400
	H337	H	0.416919	0.559233	0.707808
	H338	H	0.449574	0.550985	0.704787
	O339	O	0.469523	0.300744	0.678764
	H340	H	0.480838	0.311610	0.676096
	H341	H	0.471323	0.288941	0.689294
	O342	O	0.201966	1.207506	0.199361
	H343	H	0.189126	1.186966	0.191485
	H344	H	0.211011	1.232969	0.224877
	O345	O	0.669412	0.329617	0.669529
	H346	H	0.660195	0.343105	0.653854
	H347	H	0.660609	0.334069	0.646971
	O348	O	0.276439	0.466864	0.710779
	H349	H	0.277766	0.445165	0.691665
	H350	H	0.245448	0.469777	0.738659
	O351	O	0.158327	-0.014511	0.981565
	H352	H	0.149628	0.002804	0.976721
	H353	H	0.172503	-0.029171	0.974050
	O354	O	1.198367	-0.002507	0.780443
	H355	H	1.201342	-0.024367	0.776109
	H356	H	1.212260	-0.033944	0.768204
	O357	O	0.279115	0.722995	0.467288
	H358	H	0.256738	0.745295	0.446109
	H359	H	0.287189	0.718399	0.460761
	O360	O	0.700426	0.521900	0.702753
	H361	H	0.705576	0.538275	0.704875
	H362	H	0.705034	0.534322	0.700717
	O363	O	0.542252	0.619380	0.530833
	H364	H	0.571289	0.616407	0.540057
	H365	H	0.539040	0.603528	0.531449
	O366	O	0.904110	0.159992	0.781376
	H367	H	0.887644	0.167986	0.776084
	H368	H	0.897661	0.171956	0.766631
	O369	O	0.026850	-0.126077	1.049614
	H370	H	0.032507	-0.117692	1.049775
	H371	H	0.013259	-0.118654	1.056503
	O372	O	0.065935	1.031531	1.042421
	H373	H	0.053383	1.037257	1.049548
	H374	H	0.064242	1.037673	1.033160
	O375	O	1.152639	-0.085446	0.071962
	H376	H	1.145926	-0.066433	0.062715
	H377	H	1.149176	-0.070598	0.065782
	O378	O	0.587660	0.572257	0.303478
	H379	H	0.577205	0.573018	0.299512
	H380	H	0.591919	0.574132	0.307728
	O381	O	-0.008971	0.956466	-0.207927
	H382	H	-0.010975	0.954993	-0.216414
	H383	H	0.001622	0.941540	-0.211856
	O384	O	0.294825	0.493552	0.468265
	H385	H	0.296298	0.495763	0.464867
	H386	H	0.304275	0.491364	0.461247
	O387	O	-0.076139	0.811657	0.801996
	H388	H	-0.059195	0.802090	0.789360
	H389	H	-0.062004	0.802214	0.802976
	O390	O	0.245246	1.246519	0.749632
	H391	H	0.218763	1.224700	0.778261
	H392	H	0.243783	1.254362	0.757993
	O393	O	1.211728	0.037890	0.202052
	H394	H	1.208149	0.044640	0.204534
	H395	H	1.228650	0.046658	0.202514
	O396	O	0.449002	0.285801	0.443595
	H397	H	0.441284	0.279337	0.417602
	H398	H	0.432386	0.287470	0.443945
	O399	O	0.334159	0.694936	0.683830
	H400	H	0.349558	0.672110	0.673217
	H401	H	0.343433	0.686333	0.659526
	O402	O	1.207812	0.152302	0.996562
	H403	H	1.215076	0.171648	1.017554
	H404	H	1.212755	0.153258	0.997088
	O405	O	0.285909	0.294096	0.605298
	H406	H	0.284294	0.278143	0.623303
	H407	H	0.289989	0.279968	0.632722
	O408	O	1.211728	0.787496	0.957955
	H409	H	1.202405	0.781057	0.980328
	H410	H	1.217642	0.772952	0.974578
	O411	O	0.801036	0.808255	0.188812
	H412	H	0.810775	0.806505	0.166622
	H413	H	0.784865	0.810900	0.191633
	O414	O	-0.119114	0.102936	0.049296
	H415	H	-0.131370	0.108373	0.028015
	H416	H	-0.128348	0.088466	0.043343
	O417	O	0.552637	0.679988	0.658154
	H418	H	0.550366	0.702278	0.684307
	H419	H	0.555065	0.674049	0.655177
	O420	O	1.073530	0.204347	0.950139
	H421	H	1.080507	0.227948	0.941518
	H422	H	1.075019	0.208817	0.950059
	O423	O	0.944377	1.021926	-0.031169
	H424	H	0.929610	1.021117	-0.021855
	H425	H	0.950984	1.011291	-0.043402
	O426	O	0.469021	0.377168	0.422135
	H427	H	0.471739	0.363216	0.444292
	H428	H	0.467983	0.378577	0.424855
	O429	O	0.298680	0.545836	0.292932
	H430	H	0.292939	0.572014	0.291638
	H431	H	0.285391	0.564138	0.276867
	O432	O	0.955573	0.127777	1.125963
	H433	H	0.952118	0.146903	1.125656
	H434	H	0.939963	0.123418	1.136343
	O435	O	0.349603	0.562227	0.485038
	H436	H	0.344495	0.554543	0.492185
	H437	H	0.350930	0.566677	0.482387
	O438	O	0.534473	0.533386	0.696057
	H439	H	0.524377	0.528591	0.701301
	H440	H	0.543675	0.538155	0.690639
	O441	O	0.435478	0.457441	0.289255
	H442	H	0.413384	0.469336	0.292801
	H443	H	0.450183	0.483890	0.289775
	O444	O	0.703017	0.433498	0.287006
	H445	H	0.706817	0.442723	0.306339
	H446	H	0.692833	0.434429	0.270677
	O447	O	0.778801	0.218646	0.962112
	H448	H	0.753726	0.240112	0.966222
	H449	H	0.791045	0.218989	0.954557
	O450	O	1.413333	0.506976	0.541178
	H451	H	1.412573	0.471623	0.525315
	H452	H	1.406438	0.523376	0.538236
	O453	O	0.424061	0.726949	0.550667
	H454	H	0.421588	0.727853	0.534894
	H455	H	0.425382	0.714507	0.547276
	O456	O	-0.053510	0.992758	0.994776
	H457	H	-0.061024	0.994771	0.989185
	H458	H	-0.043215	0.988865	0.985838
	O459	O	0.541448	0.287187	0.580313
	H460	H	0.524218	0.274355	0.563248
	H461	H	0.533283	0.278443	0.576658
	O462	O	0.557971	0.328867	0.339655
	H463	H	0.545316	0.360054	0.338805
	H464	H	0.557033	0.312019	0.316510
	O465	O	0.192018	0.809032	0.793999
	H466	H	0.223706	0.777584	0.782749
	H467	H	0.188969	0.806677	0.838354
	O468	O	0.188557	0.816855	0.184583
	H469	H	0.176241	0.838810	0.164365
	H470	H	0.161132	0.832232	0.173140
	O471	O	0.716127	0.288279	0.461717
	H472	H	0.703441	0.295710	0.445450
	H473	H	0.741953	0.260442	0.463785
	O474	O	1.290356	0.709198	0.286405
	H475	H	1.328811	0.718119	0.294432
	H476	H	1.260883	0.743683	0.253591
	O477	O	0.496384	0.497931	0.445945
	H478	H	0.483820	0.480838	0.450070
	H479	H	0.492484	0.514860	0.442683
