data_Molecule from HDF5

_cell_length_a		16.224980
_cell_length_b		16.168906
_cell_length_c		16.224375
_cell_angle_alpha	89.884044
_cell_angle_beta	89.966498
_cell_angle_gamma	90.002405
_symmetry_space_group_name_H-M	'P 1'
_symmetry_Int_Tables_number		1

loop_
	_symmetry_equiv_pos_as_xyz
	x,y,z

loop_
	_atom_site_label
	_atom_site_type_symbol
	_atom_site_fract_x
	_atom_site_fract_y
	_atom_site_fract_z
	H0	H	0.405502	0.837083	0.713268
	H1	H	0.602511	0.166287	0.712196
	H2	H	0.602767	0.838142	0.284923
	H3	H	0.403368	0.165912	0.283574
	H4	H	0.717989	0.404132	0.833962
	H5	H	0.717948	0.601729	0.162257
	H6	H	0.289663	0.601056	0.833972
	H7	H	0.288512	0.402833	0.162249
	H8	H	0.839166	0.717119	0.399980
	H9	H	0.168125	0.715306	0.595448
	H10	H	0.839375	0.288090	0.597332
	H11	H	0.167807	0.288271	0.399867
	H12	H	0.839439	0.402568	0.713009
	H13	H	0.167721	0.600794	0.713130
	H14	H	0.838417	0.602002	0.283591
	H15	H	0.167025	0.403016	0.282961
	H16	H	0.406092	0.715493	0.833999
	H17	H	0.601193	0.715015	0.162694
	H18	H	0.602934	0.287699	0.834045
	H19	H	0.404613	0.287778	0.162159
	H20	H	0.717519	0.837823	0.399921
	H21	H	0.717721	0.166444	0.597851
	H22	H	0.288433	0.837222	0.598435
	H23	H	0.288664	0.166177	0.399042
	H24	H	0.903059	0.338076	0.213758
	H25	H	0.101442	0.667015	0.210937
	H26	H	0.102501	0.337118	0.785313
	H27	H	0.904838	0.666986	0.785338
	H28	H	0.219182	0.902891	0.335277
	H29	H	0.217370	0.100695	0.662977
	H30	H	0.788056	0.102649	0.334995
	H31	H	0.788912	0.903080	0.662667
	H32	H	0.339019	0.215841	0.899634
	H33	H	0.667722	0.216000	0.095620
	H34	H	0.338812	0.788556	0.096622
	H35	H	0.668062	0.788347	0.900836
	H36	H	0.339282	0.903007	0.214261
	H37	H	0.667558	0.101632	0.213377
	H38	H	0.340061	0.101595	0.782790
	H39	H	0.667705	0.902599	0.785187
	H40	H	0.905018	0.216699	0.334498
	H41	H	0.101640	0.215501	0.662896
	H42	H	0.102492	0.789848	0.334065
	H43	H	0.905308	0.788110	0.663250
	H44	H	0.217805	0.338059	0.898651
	H45	H	0.216428	0.666966	0.095747
	H46	H	0.788793	0.338231	0.098616
	H47	H	0.790329	0.667350	0.900483
	H48	H	0.402052	0.121696	0.591483
	H49	H	0.603497	0.882851	0.590020
	H50	H	0.603033	0.123446	0.403109
	H51	H	0.410543	0.881838	0.398743
	H52	H	0.589015	0.419588	0.109742
	H53	H	0.599961	0.604024	0.877396
	H54	H	0.404127	0.596041	0.118606
	H55	H	0.404865	0.418920	0.880988
	H56	H	0.119495	0.593840	0.407163
	H57	H	0.888254	0.587303	0.592517
	H58	H	0.120834	0.404954	0.586732
	H59	H	0.881060	0.399104	0.399179
	H60	H	0.118396	0.415953	0.591362
	H61	H	0.882463	0.599367	0.598538
	H62	H	0.120384	0.592875	0.402246
	H63	H	0.889388	0.408310	0.419433
	H64	H	0.409710	0.590400	0.114530
	H65	H	0.603470	0.589952	0.880239
	H66	H	0.589635	0.397529	0.117261
	H67	H	0.420139	0.408945	0.883964
	H68	H	0.588292	0.119864	0.401972
	H69	H	0.596207	0.881235	0.599830
	H70	H	0.416238	0.120074	0.598972
	H71	H	0.417946	0.887437	0.410425
	H72	H	0.922717	0.619570	0.098530
	H73	H	0.095487	0.383805	0.094130
	H74	H	0.090589	0.619070	0.902953
	H75	H	0.914815	0.385536	0.907078
	H76	H	0.096454	0.901195	0.618549
	H77	H	0.089660	0.095437	0.383185
	H78	H	0.896386	0.095763	0.620389
	H79	H	0.904308	0.912936	0.380637
	H80	H	0.615983	0.085487	0.912896
	H81	H	0.389532	0.085922	0.088935
	H82	H	0.623210	0.897006	0.088472
	H83	H	0.388039	0.908863	0.911833
	H84	H	0.615954	0.917035	0.084482
	H85	H	0.382773	0.096371	0.100933
	H86	H	0.624052	0.093757	0.893075
	H87	H	0.387793	0.914645	0.902775
	H88	H	0.915491	0.083813	0.611075
	H89	H	0.100599	0.099595	0.378143
	H90	H	0.102688	0.913148	0.616657
	H91	H	0.914654	0.912877	0.383811
	H92	H	0.098157	0.618848	0.911032
	H93	H	0.094176	0.384519	0.090177
	H94	H	0.910267	0.616584	0.078210
	H95	H	0.906941	0.384173	0.909442
	H96	H	0.414468	0.116115	0.583166
	H97	H	0.591785	0.886632	0.588503
	H98	H	0.596383	0.117158	0.414801
	H99	H	0.403340	0.884185	0.411772
	H100	H	0.608467	0.410566	0.118277
	H101	H	0.589626	0.594121	0.882912
	H102	H	0.412018	0.598336	0.115780
	H103	H	0.404473	0.400080	0.876365
	H104	H	0.121597	0.597685	0.403969
	H105	H	0.887227	0.598954	0.584815
	H106	H	0.123554	0.406887	0.598080
	H107	H	0.888571	0.421729	0.399329
	H108	H	0.898194	0.625230	0.097211
	H109	H	0.097775	0.384059	0.090610
	H110	H	0.100727	0.622038	0.900624
	H111	H	0.908936	0.382823	0.901503
	H112	H	0.089283	0.912522	0.612639
	H113	H	0.099199	0.087851	0.383004
	H114	H	0.917832	0.106744	0.617170
	H115	H	0.910991	0.903421	0.379145
	H116	H	0.622648	0.106989	0.911362
	H117	H	0.386052	0.102389	0.085407
	H118	H	0.623901	0.912329	0.103969
	H119	H	0.383652	0.904722	0.902252
	C120	C	0.382090	0.010525	0.620444
	C121	C	0.625632	0.992786	0.620551
	C122	C	0.624638	0.011214	0.377924
	C123	C	0.381696	0.992900	0.377649
	C124	C	0.624599	0.381038	0.006634
	C125	C	0.625197	0.623775	0.989285
	C126	C	0.381144	0.623761	0.007214
	C127	C	0.381428	0.380551	0.989322
	C128	C	0.011778	0.624123	0.376228
	C129	C	0.994756	0.623644	0.620289
	C130	C	0.012024	0.380848	0.620238
	C131	C	0.994737	0.380653	0.376752
	C132	C	0.881443	0.511510	0.120182
	C133	C	0.124395	0.493224	0.119604
	C134	C	0.124800	0.510780	0.876692
	C135	C	0.881718	0.493477	0.877442
	C136	C	0.125430	0.880743	0.507374
	C137	C	0.125349	0.123595	0.489980
	C138	C	0.881610	0.124040	0.507275
	C139	C	0.881596	0.880509	0.489985
	C140	C	0.512260	0.123990	0.876833
	C141	C	0.494633	0.123690	0.120352
	C142	C	0.512233	0.880194	0.120974
	C143	C	0.495191	0.880626	0.877714
	C144	C	0.384367	0.886208	0.675588
	C145	C	0.622784	0.117114	0.674729
	C146	C	0.622773	0.887325	0.322737
	C147	C	0.383466	0.116916	0.321829
	C148	C	0.680291	0.383379	0.883103
	C149	C	0.679701	0.621558	0.113294
	C150	C	0.327283	0.621430	0.883128
	C151	C	0.326302	0.382612	0.113030
	C152	C	0.888207	0.679308	0.379104
	C153	C	0.118952	0.677771	0.616676
	C154	C	0.888433	0.325569	0.617795
	C155	C	0.118625	0.325824	0.379261
	C156	C	0.888363	0.382814	0.675095
	C157	C	0.118607	0.621331	0.675432
	C158	C	0.887931	0.622271	0.321194
	C159	C	0.118164	0.382687	0.320952
	C160	C	0.385006	0.678307	0.883239
	C161	C	0.621761	0.677882	0.113394
	C162	C	0.622888	0.325761	0.883002
	C163	C	0.384435	0.325835	0.113175
	C164	C	0.679810	0.887145	0.379932
	C165	C	0.680148	0.117123	0.617869
	C166	C	0.326442	0.886460	0.618518
	C167	C	0.326619	0.117203	0.379277
	C168	C	0.883272	0.387226	0.175599
	C169	C	0.121742	0.617616	0.173781
	C170	C	0.122631	0.386751	0.822199
	C171	C	0.884123	0.617592	0.822615
	C172	C	0.180932	0.882868	0.383999
	C173	C	0.180188	0.121382	0.613720
	C174	C	0.826062	0.122680	0.384012
	C175	C	0.826654	0.882786	0.613495
	C176	C	0.388402	0.178394	0.879307
	C177	C	0.618644	0.178696	0.117190
	C178	C	0.388156	0.825635	0.117967
	C179	C	0.618918	0.826114	0.880669
	C180	C	0.388372	0.882751	0.176236
	C181	C	0.618403	0.121633	0.175461
	C182	C	0.388952	0.121607	0.821202
	C183	C	0.618829	0.882961	0.822950
	C184	C	0.884130	0.179363	0.383753
	C185	C	0.122456	0.178322	0.613603
	C186	C	0.123109	0.826382	0.383607
	C187	C	0.884613	0.825664	0.613807
	C188	C	0.180135	0.387207	0.878678
	C189	C	0.178827	0.617594	0.116306
	C190	C	0.826327	0.387331	0.118297
	C191	C	0.827629	0.617805	0.880342
	C192	C	0.404222	0.096815	0.597942
	C193	C	0.603781	0.906028	0.599211
	C194	C	0.602443	0.097636	0.400095
	C195	C	0.404027	0.906796	0.400363
	C196	C	0.602231	0.402738	0.092745
	C197	C	0.604059	0.602443	0.902599
	C198	C	0.402316	0.601440	0.094005
	C199	C	0.403438	0.402789	0.902930
	C200	C	0.098142	0.601477	0.398092
	C201	C	0.908252	0.601793	0.598391
	C202	C	0.098639	0.402849	0.598510
	C203	C	0.908589	0.403024	0.399290
	C204	C	0.903735	0.598064	0.097967
	C205	C	0.102378	0.406616	0.098130
	C206	C	0.102810	0.597784	0.898450
	C207	C	0.903767	0.406530	0.899543
	C208	C	0.102861	0.902522	0.593597
	C209	C	0.103121	0.101116	0.403813
	C210	C	0.903479	0.101911	0.593892
	C211	C	0.903618	0.903134	0.403315
	C212	C	0.598693	0.101954	0.899236
	C213	C	0.408397	0.101518	0.098337
	C214	C	0.598484	0.902300	0.098878
	C215	C	0.408738	0.902740	0.899446
	Zn216	Zn	0.504130	0.001806	0.748853
	Zn217	Zn	0.503235	0.002104	0.249872
	Zn218	Zn	0.753658	0.502466	-0.001368
	Zn219	Zn	0.252780	0.502318	-0.001966
	Zn220	Zn	0.003703	0.752391	0.498153
	Zn221	Zn	0.003451	0.252190	0.498577
	Zn222	Zn	0.003073	0.501874	0.749450
	Zn223	Zn	0.002702	0.502110	0.248018
	Zn224	Zn	0.503358	0.751467	-0.001334
	Zn225	Zn	0.503288	0.252000	-0.001875
	Zn226	Zn	0.752978	0.002337	0.498824
	Zn227	Zn	0.253388	0.002291	0.498664
	N228	N	0.418319	0.964154	0.676980
	N229	N	0.589536	0.038780	0.676503
	N230	N	0.589167	0.965277	0.321567
	N231	N	0.417165	0.038950	0.320797
	N232	N	0.681432	0.417016	0.960900
	N233	N	0.682120	0.588785	0.035175
	N234	N	0.324701	0.588347	0.961369
	N235	N	0.324152	0.415710	0.034917
	N236	N	0.966053	0.680375	0.412764
	N237	N	0.041053	0.679561	0.583153
	N238	N	0.966396	0.324166	0.584491
	N239	N	0.040828	0.324442	0.413074
	N240	N	0.966160	0.416511	0.676740
	N241	N	0.040446	0.588288	0.677698
	N242	N	0.965957	0.588709	0.318967
	N243	N	0.040144	0.416165	0.319280
	N244	N	0.417684	0.679801	0.961426
	N245	N	0.588574	0.679426	0.035284
	N246	N	0.588783	0.324270	0.960678
	N247	N	0.417995	0.324351	0.035239
	N248	N	0.681100	0.965158	0.413735
	N249	N	0.681988	0.038793	0.585012
	N250	N	0.324927	0.964523	0.584820
	N251	N	0.325459	0.039276	0.413386
	N252	N	0.916895	0.465357	0.176919
	N253	N	0.088329	0.539438	0.175782
	N254	N	0.088951	0.464800	0.820915
	N255	N	0.917192	0.539339	0.820928
	N256	N	0.182434	0.916025	0.461796
	N257	N	0.182016	0.088044	0.535797
	N258	N	0.824609	0.088634	0.461860
	N259	N	0.824834	0.916131	0.535415
	N260	N	0.466160	0.179766	0.913183
	N261	N	0.540737	0.180201	0.083680
	N262	N	0.466071	0.823916	0.084259
	N263	N	0.540894	0.824652	0.913930
	N264	N	0.466557	0.915808	0.178280
	N265	N	0.540481	0.088080	0.177355
	N266	N	0.467040	0.088377	0.819672
	N267	N	0.540827	0.916255	0.820980
	N268	N	0.917891	0.180190	0.461474
	N269	N	0.089074	0.179706	0.535590
	N270	N	0.089060	0.825088	0.461434
	N271	N	0.918069	0.824223	0.535786
	N272	N	0.181553	0.465475	0.911861
	N273	N	0.180762	0.539282	0.083338
	N274	N	0.825041	0.465590	0.084680
	N275	N	0.825855	0.539327	0.913535
	O276	O	0.990667	1.012490	0.002487
	H277	H	0.989075	1.005398	-0.004777
	H278	H	0.990066	1.013587	0.004293
	O279	O	0.024233	0.039852	-0.035420
	H280	H	0.027767	0.040590	-0.037976
	H281	H	0.028722	0.040826	-0.036230
	O282	O	0.042973	0.005597	0.974658
	H283	H	0.041191	0.007264	0.974253
	H284	H	0.033027	0.013633	0.970800
	O285	O	0.491936	0.455824	0.441370
	H286	H	0.500248	0.454893	0.432660
	H287	H	0.484157	0.448729	0.436340
	O288	O	0.493628	0.460705	0.535391
	H289	H	0.485698	0.453272	0.537212
	H290	H	0.498504	0.460323	0.542326
	O291	O	0.524345	0.449942	0.419861
	H292	H	0.517457	0.451015	0.422924
	H293	H	0.530867	0.447811	0.412837
	O294	O	-0.467245	-0.536306	0.424583
	H295	H	-0.464772	-0.536183	0.428491
	H296	H	-0.470023	-0.538192	0.427774
	O297	O	0.504105	0.469872	0.530435
	H298	H	0.505364	0.462550	0.526177
	H299	H	0.501946	0.465897	0.534838
	O300	O	-0.044106	1.028356	1.005648
	H301	H	-0.049310	1.027183	1.011678
	H302	H	-0.040366	1.023870	1.000632
	O303	O	0.484574	0.511840	0.464096
	H304	H	0.488448	0.512633	0.456531
	H305	H	0.492263	0.515411	0.466102
	O306	O	0.011758	-0.022787	1.002904
	H307	H	0.014859	-0.024078	1.010306
	H308	H	0.006316	-0.010138	1.008782
	O309	O	1.051440	0.969583	1.015610
	H310	H	1.052715	0.963448	1.010752
	H311	H	1.060437	0.964288	1.024637
	O312	O	0.542554	0.519665	0.457443
	H313	H	0.552462	0.522458	0.462261
	H314	H	0.533077	0.515949	0.457882
	O315	O	0.522133	0.455706	0.452869
	H316	H	0.522951	0.456955	0.446773
	H317	H	0.518894	0.456732	0.451443
	O318	O	0.005384	1.009073	-0.037929
	H319	H	0.006409	1.008761	-0.039545
	H320	H	0.017710	1.007024	-0.036272
	O321	O	0.974427	0.988970	0.006833
	H322	H	0.971030	0.986251	0.008902
	H323	H	0.973170	0.982972	0.001178
