data_Molecule from HDF5

_cell_length_a		16.189668
_cell_length_b		16.414478
_cell_length_c		16.117055
_cell_angle_alpha	89.890964
_cell_angle_beta	89.641810
_cell_angle_gamma	89.965848
_symmetry_space_group_name_H-M	'P 1'
_symmetry_Int_Tables_number		1

loop_
	_symmetry_equiv_pos_as_xyz
	x,y,z

loop_
	_atom_site_label
	_atom_site_type_symbol
	_atom_site_fract_x
	_atom_site_fract_y
	_atom_site_fract_z
	H0	H	0.401490	0.838711	0.713641
	H1	H	0.598999	0.164245	0.709265
	H2	H	0.603236	0.838898	0.278590
	H3	H	0.403090	0.163328	0.281194
	H4	H	0.716101	0.400998	0.830478
	H5	H	0.716899	0.602473	0.158826
	H6	H	0.288146	0.599387	0.829674
	H7	H	0.286575	0.403763	0.160237
	H8	H	0.840513	0.720368	0.392057
	H9	H	0.165779	0.717554	0.596920
	H10	H	0.839733	0.281023	0.599251
	H11	H	0.165352	0.282828	0.391010
	H12	H	0.838497	0.400175	0.710542
	H13	H	0.167693	0.595969	0.706259
	H14	H	0.838167	0.599794	0.281819
	H15	H	0.166864	0.403905	0.281333
	H16	H	0.398143	0.719258	0.831790
	H17	H	0.602032	0.718260	0.158586
	H18	H	0.603749	0.283496	0.832890
	H19	H	0.396862	0.285801	0.159455
	H20	H	0.719898	0.839366	0.394173
	H21	H	0.718214	0.163076	0.595478
	H22	H	0.286257	0.838098	0.596874
	H23	H	0.285882	0.161262	0.395378
	H24	H	0.898690	0.339391	0.213103
	H25	H	0.102051	0.661725	0.210652
	H26	H	0.105865	0.338296	0.776897
	H27	H	0.902524	0.661466	0.776712
	H28	H	0.218103	0.901325	0.330909
	H29	H	0.214026	0.097555	0.660734
	H30	H	0.789865	0.099022	0.330937
	H31	H	0.786751	0.899730	0.660019
	H32	H	0.337593	0.219459	0.894922
	H33	H	0.662872	0.221663	0.099947
	H34	H	0.337558	0.783680	0.100339
	H35	H	0.660987	0.779960	0.886047
	H36	H	0.337169	0.903662	0.211509
	H37	H	0.666774	0.099119	0.207717
	H38	H	0.336714	0.101764	0.781413
	H39	H	0.665968	0.904494	0.781380
	H40	H	0.899309	0.216998	0.332258
	H41	H	0.104259	0.217233	0.658618
	H42	H	0.108492	0.783370	0.332014
	H43	H	0.900309	0.782397	0.658650
	H44	H	0.219896	0.338681	0.893787
	H45	H	0.216810	0.662187	0.095774
	H46	H	0.782767	0.340209	0.097933
	H47	H	0.781749	0.660116	0.887925
	H48	H	0.406206	0.115724	0.584377
	H49	H	0.593842	0.887527	0.585052
	H50	H	0.599410	0.119818	0.393837
	H51	H	0.410419	0.884139	0.401008
	H52	H	0.592311	0.397061	0.117451
	H53	H	0.585284	0.597945	0.878390
	H54	H	0.407409	0.603159	0.115639
	H55	H	0.413230	0.412482	0.878656
	H56	H	0.117987	0.590907	0.407014
	H57	H	0.884887	0.586571	0.595453
	H58	H	0.120404	0.411098	0.592603
	H59	H	0.883992	0.405298	0.402232
	H60	H	0.120988	0.397602	0.581607
	H61	H	0.882945	0.604989	0.583823
	H62	H	0.120388	0.590605	0.399772
	H63	H	0.884636	0.405224	0.408627
	H64	H	0.401380	0.587115	0.112620
	H65	H	0.597965	0.593726	0.875622
	H66	H	0.602429	0.420154	0.113691
	H67	H	0.412787	0.404680	0.877366
	H68	H	0.587244	0.113125	0.404741
	H69	H	0.598376	0.885169	0.588114
	H70	H	0.405418	0.117878	0.593148
	H71	H	0.414661	0.886551	0.404576
	H72	H	0.910078	0.618578	0.095152
	H73	H	0.092331	0.383765	0.091856
	H74	H	0.088184	0.615636	0.891964
	H75	H	0.909859	0.385699	0.903111
	H76	H	0.095605	0.903728	0.615147
	H77	H	0.096991	0.086332	0.378631
	H78	H	0.905564	0.087508	0.613539
	H79	H	0.917080	0.913811	0.381232
	H80	H	0.616149	0.085134	0.898570
	H81	H	0.385969	0.095864	0.084730
	H82	H	0.618966	0.906705	0.088326
	H83	H	0.387769	0.912456	0.912705
	H84	H	0.616541	0.906286	0.080366
	H85	H	0.385791	0.089939	0.088667
	H86	H	0.621377	0.103905	0.899283
	H87	H	0.383400	0.914854	0.900789
	H88	H	0.917555	0.087665	0.609452
	H89	H	0.087674	0.092916	0.379771
	H90	H	0.093926	0.910781	0.612134
	H91	H	0.916073	0.903724	0.377502
	H92	H	0.089780	0.610331	0.910697
	H93	H	0.090210	0.387659	0.083291
	H94	H	0.917334	0.611517	0.082411
	H95	H	0.910654	0.385710	0.903830
	H96	H	0.413365	0.114954	0.588761
	H97	H	0.592008	0.885882	0.590506
	H98	H	0.602165	0.115142	0.410648
	H99	H	0.409018	0.885623	0.407371
	H100	H	0.577932	0.415130	0.106806
	H101	H	0.588639	0.584157	0.881357
	H102	H	0.417835	0.590802	0.109444
	H103	H	0.406457	0.408786	0.876410
	H104	H	0.120552	0.596821	0.403212
	H105	H	0.891100	0.587050	0.574108
	H106	H	0.115036	0.412356	0.575801
	H107	H	0.886610	0.410120	0.405227
	H108	H	0.901618	0.616697	0.081218
	H109	H	0.098481	0.384533	0.084567
	H110	H	0.104537	0.618299	0.900771
	H111	H	0.909903	0.385864	0.904042
	H112	H	0.088529	0.905681	0.612399
	H113	H	0.096697	0.097184	0.376084
	H114	H	0.912274	0.098688	0.614672
	H115	H	0.907671	0.910736	0.377040
	H116	H	0.614862	0.094169	0.916414
	H117	H	0.382523	0.095617	0.090920
	H118	H	0.616519	0.912947	0.084298
	H119	H	0.382225	0.903023	0.905314
	C120	C	0.379235	0.009163	0.618775
	C121	C	0.623690	0.993288	0.617402
	C122	C	0.625721	0.009228	0.372868
	C123	C	0.381245	0.991934	0.374299
	C124	C	0.621990	0.380281	0.004529
	C125	C	0.621531	0.622333	0.986588
	C126	C	0.379427	0.622661	0.003801
	C127	C	0.379821	0.380197	0.986186
	C128	C	0.011356	0.622404	0.373702
	C129	C	0.994333	0.621623	0.615084
	C130	C	0.010913	0.377615	0.615279
	C131	C	0.993263	0.378095	0.373513
	C132	C	0.878995	0.509335	0.116883
	C133	C	0.123387	0.491865	0.116384
	C134	C	0.124880	0.508243	0.871922
	C135	C	0.879960	0.491864	0.872265
	C136	C	0.123870	0.878179	0.504684
	C137	C	0.123559	0.121405	0.486358
	C138	C	0.881920	0.120937	0.504277
	C139	C	0.882237	0.879042	0.486604
	C140	C	0.509167	0.123660	0.875083
	C141	C	0.492631	0.123520	0.117631
	C142	C	0.509478	0.879704	0.116330
	C143	C	0.492137	0.880161	0.874248
	C144	C	0.381317	0.887110	0.675347
	C145	C	0.620591	0.115491	0.672306
	C146	C	0.623751	0.887665	0.316447
	C147	C	0.382866	0.114202	0.318747
	C148	C	0.678862	0.381030	0.880522
	C149	C	0.678553	0.621923	0.109601
	C150	C	0.325153	0.619930	0.879330
	C151	C	0.323593	0.382771	0.110737
	C152	C	0.889023	0.680596	0.373602
	C153	C	0.117221	0.678170	0.615287
	C154	C	0.888351	0.320437	0.617266
	C155	C	0.116396	0.321667	0.372477
	C156	C	0.887590	0.379883	0.672466
	C157	C	0.118174	0.617817	0.670012
	C158	C	0.887709	0.620636	0.318562
	C159	C	0.116927	0.381688	0.317512
	C160	C	0.379571	0.679788	0.880334
	C161	C	0.621567	0.679997	0.109331
	C162	C	0.622518	0.322720	0.881444
	C163	C	0.378872	0.324456	0.110476
	C164	C	0.681801	0.887690	0.374227
	C165	C	0.680166	0.114581	0.616037
	C166	C	0.323549	0.887024	0.617604
	C167	C	0.324473	0.113394	0.375608
	C168	C	0.879182	0.387961	0.174600
	C169	C	0.121692	0.613503	0.172681
	C170	C	0.124872	0.386765	0.815345
	C171	C	0.881586	0.612997	0.814654
	C172	C	0.180830	0.880606	0.380591
	C173	C	0.177929	0.118735	0.610782
	C174	C	0.826437	0.119319	0.380687
	C175	C	0.824686	0.879607	0.610577
	C176	C	0.386581	0.180722	0.875618
	C177	C	0.614904	0.181539	0.118076
	C178	C	0.386572	0.822900	0.117964
	C179	C	0.613382	0.820778	0.870205
	C180	C	0.386329	0.882344	0.173841
	C181	C	0.616789	0.120801	0.171877
	C182	C	0.385980	0.121959	0.819011
	C183	C	0.615849	0.882378	0.817454
	C184	C	0.880941	0.178142	0.381177
	C185	C	0.123229	0.178455	0.609716
	C186	C	0.125877	0.822044	0.381060
	C187	C	0.880883	0.821039	0.609858
	C188	C	0.182028	0.387014	0.873620
	C189	C	0.179219	0.613571	0.115524
	C190	C	0.821431	0.388379	0.117230
	C191	C	0.821732	0.612403	0.870376
	C192	C	0.401624	0.094000	0.595783
	C193	C	0.601169	0.908237	0.594675
	C194	C	0.602862	0.094219	0.396011
	C195	C	0.404450	0.907134	0.397626
	C196	C	0.598039	0.403809	0.090349
	C197	C	0.597687	0.598759	0.900719
	C198	C	0.402103	0.600297	0.089995
	C199	C	0.403727	0.402088	0.899944
	C200	C	0.097349	0.599504	0.396516
	C201	C	0.908615	0.599379	0.591511
	C202	C	0.096552	0.400312	0.590478
	C203	C	0.907310	0.400310	0.398149
	C204	C	0.902708	0.593444	0.093109
	C205	C	0.100414	0.407310	0.093401
	C206	C	0.101215	0.592858	0.894594
	C207	C	0.903276	0.407555	0.896640
	C208	C	0.099782	0.900176	0.590704
	C209	C	0.100509	0.098671	0.400554
	C210	C	0.905122	0.098019	0.590586
	C211	C	0.906529	0.902404	0.401122
	C212	C	0.595166	0.100956	0.898026
	C213	C	0.407062	0.100654	0.094725
	C214	C	0.595116	0.902136	0.091512
	C215	C	0.406668	0.903525	0.899104
	Zn216	Zn	0.501273	0.001473	0.747022
	Zn217	Zn	0.502152	0.001233	0.244810
	Zn218	Zn	0.750259	0.500984	-0.005087
	Zn219	Zn	0.252633	0.500611	-0.004985
	Zn220	Zn	0.003554	0.750991	0.494682
	Zn221	Zn	0.001950	0.249196	0.494691
	Zn222	Zn	0.002709	0.499425	0.742823
	Zn223	Zn	0.001791	0.500533	0.245274
	Zn224	Zn	0.500366	0.751183	-0.005383
	Zn225	Zn	0.500317	0.252529	-0.002968
	Zn226	Zn	0.754186	0.000736	0.495961
	Zn227	Zn	0.250644	-0.000676	0.495674
	N228	N	0.414805	0.964087	0.676476
	N229	N	0.586208	0.038957	0.673199
	N230	N	0.589787	0.964427	0.315426
	N231	N	0.417453	0.037766	0.318059
	N232	N	0.678404	0.416261	0.958008
	N233	N	0.678750	0.586921	0.032083
	N234	N	0.324635	0.585455	0.957145
	N235	N	0.324129	0.416711	0.032647
	N236	N	0.967046	0.681873	0.407034
	N237	N	0.039285	0.680668	0.582027
	N238	N	0.966186	0.318946	0.582484
	N239	N	0.038256	0.319002	0.406340
	N240	N	0.964855	0.414663	0.671390
	N241	N	0.040649	0.583573	0.670229
	N242	N	0.964681	0.585145	0.318510
	N243	N	0.039305	0.416009	0.318034
	N244	N	0.412583	0.681762	0.958790
	N245	N	0.587077	0.680542	0.031578
	N246	N	0.588025	0.321993	0.959661
	N247	N	0.413027	0.322456	0.032178
	N248	N	0.683216	0.964337	0.408481
	N249	N	0.681855	0.037623	0.582438
	N250	N	0.321803	0.963778	0.583206
	N251	N	0.323377	0.036298	0.409426
	N252	N	0.914297	0.464306	0.174910
	N253	N	0.087704	0.536859	0.173401
	N254	N	0.089938	0.463112	0.814211
	N255	N	0.917043	0.536941	0.815592
	N256	N	0.179875	0.914907	0.458483
	N257	N	0.178806	0.084273	0.533029
	N258	N	0.826999	0.084302	0.458242
	N259	N	0.825119	0.914800	0.533023
	N260	N	0.464296	0.182026	0.909674
	N261	N	0.536736	0.183438	0.085149
	N262	N	0.464186	0.821101	0.082762
	N263	N	0.535594	0.819519	0.904977
	N264	N	0.463769	0.916903	0.172973
	N265	N	0.539828	0.085167	0.171751
	N266	N	0.463309	0.087048	0.818691
	N267	N	0.539295	0.918841	0.819878
	N268	N	0.914937	0.179223	0.459170
	N269	N	0.090105	0.180342	0.531299
	N270	N	0.091130	0.820383	0.459017
	N271	N	0.915862	0.820408	0.531920
	N272	N	0.182062	0.463590	0.908297
	N273	N	0.180221	0.537039	0.081106
	N274	N	0.821187	0.464675	0.082035
	N275	N	0.820690	0.536076	0.905566
	O276	O	0.179661	-0.047544	-0.178731
	H277	H	0.198558	-0.042699	-0.202103
	H278	H	0.168471	-0.053262	-0.163122
	O279	O	0.552320	0.541087	0.611994
	H280	H	0.542121	0.546853	0.614351
	H281	H	0.559314	0.543676	0.620084
	O282	O	0.982804	0.000738	-0.082925
	H283	H	0.974830	-0.001736	-0.073117
	H284	H	0.994325	-0.008162	-0.087703
	O285	O	0.060589	1.007814	-0.115858
	H286	H	0.054017	1.009165	-0.130942
	H287	H	0.053069	0.997430	-0.126307
	O288	O	0.529571	0.481035	0.442475
	H289	H	0.531112	0.472916	0.435694
	H290	H	0.534442	0.484560	0.437101
	O291	O	0.463655	0.549445	0.601112
	H292	H	0.465147	0.565954	0.617750
	H293	H	0.457219	0.545629	0.596845
	O294	O	0.821011	0.843723	0.996545
	H295	H	0.812368	0.839546	1.021490
	H296	H	0.810344	0.831523	1.018466
	O297	O	-0.142717	-0.111843	0.185458
	H298	H	-0.127213	-0.086604	0.180726
	H299	H	-0.136176	-0.101364	0.200382
	O300	O	0.488568	0.502558	0.440785
	H301	H	0.498618	0.498650	0.438834
	H302	H	0.494433	0.511452	0.447114
	O303	O	0.021915	0.864188	0.927118
	H304	H	0.017149	0.857655	0.929481
	H305	H	0.018348	0.863451	0.935890
	O306	O	0.011149	0.938709	0.164577
	H307	H	0.025087	0.928185	0.170008
	H308	H	0.017411	0.953703	0.156981
	O309	O	1.043889	0.088084	-0.006367
	H310	H	1.062626	0.091867	-0.004673
	H311	H	1.054771	0.074481	-0.010663
	O312	O	0.049574	-0.113879	1.075201
	H313	H	0.056210	-0.115745	1.077826
	H314	H	0.039813	-0.112843	1.069603
	O315	O	0.384536	0.502785	0.583586
	H316	H	0.387431	0.493311	0.589293
	H317	H	0.392791	0.505240	0.583176
	O318	O	0.543011	0.381034	0.474603
	H319	H	0.557871	0.376170	0.466561
	H320	H	0.530854	0.378167	0.472062
	O321	O	0.613040	0.610561	0.616163
	H322	H	0.611980	0.617492	0.626431
	H323	H	0.607706	0.617860	0.624971
	O324	O	0.487800	0.568216	0.402929
	H325	H	0.492441	0.563443	0.386388
	H326	H	0.477602	0.570114	0.406613
	O327	O	-0.139198	1.198276	0.998755
	H328	H	-0.152092	1.212822	0.977465
	H329	H	-0.124140	1.199554	0.983667
	O330	O	0.646623	0.516344	0.493745
	H331	H	0.645429	0.525517	0.490450
	H332	H	0.649082	0.519491	0.498697
	O333	O	-0.033363	0.998338	0.903199
	H334	H	-0.024902	1.005536	0.916099
	H335	H	-0.041687	1.002661	0.909153
	O336	O	1.057170	0.848460	0.856832
	H337	H	1.043148	0.847583	0.866587
	H338	H	1.040001	0.852998	0.847817
	O339	O	0.475414	0.380487	0.521444
	H340	H	0.487959	0.372128	0.519284
	H341	H	0.477680	0.375422	0.516700
	O342	O	1.152244	0.190282	0.031026
	H343	H	1.139257	0.175965	0.043688
	H344	H	1.155407	0.206769	0.027409
	O345	O	0.419005	0.517147	0.412959
	H346	H	0.405933	0.509033	0.413398
	H347	H	0.429049	0.512795	0.409870
	O348	O	0.953369	1.028150	1.102993
	H349	H	0.951331	1.034525	1.097491
	H350	H	0.948244	1.031334	1.095237
	O351	O	0.899080	0.929954	-0.091800
	H352	H	0.895121	0.911024	-0.069853
	H353	H	0.890660	0.936729	-0.079466
	O354	O	0.500153	0.467125	0.501518
	H355	H	0.503848	0.471125	0.497767
	H356	H	0.493464	0.474646	0.506203
	O357	O	0.440424	0.451340	0.614721
	H358	H	0.445927	0.456660	0.601050
	H359	H	0.446873	0.456088	0.628233
	O360	O	-0.043785	0.168042	0.069539
	H361	H	-0.038978	0.171805	0.071307
	H362	H	-0.037956	0.180413	0.053494
	O363	O	0.560746	0.482967	0.440403
	H364	H	0.553063	0.494415	0.441074
	H365	H	0.564210	0.485861	0.437488
	O366	O	-0.014476	0.065651	1.032646
	H367	H	-0.020667	0.084710	1.028540
	H368	H	-0.007777	0.049613	1.036087
	O369	O	0.540229	0.499860	0.426137
	H370	H	0.550939	0.494351	0.425662
	H371	H	0.536096	0.500860	0.423538
	O372	O	0.434318	0.625611	0.407358
	H373	H	0.446717	0.632514	0.401228
	H374	H	0.420674	0.618892	0.409053
	O375	O	0.452892	0.385981	0.540052
	H376	H	0.445860	0.378405	0.537609
	H377	H	0.462091	0.378515	0.562452
	O378	O	0.526755	0.588466	0.448148
	H379	H	0.532738	0.585330	0.447692
	H380	H	0.529632	0.585833	0.458171
	O381	O	0.541981	0.462948	0.493249
	H382	H	0.537201	0.471145	0.477136
	H383	H	0.534438	0.455743	0.494232
	O384	O	0.119835	0.882621	-0.007138
	H385	H	0.119075	0.892051	-0.015227
	H386	H	0.127323	0.871082	-0.016353
	O387	O	0.982251	-0.104155	1.174716
	H388	H	0.978891	-0.090679	1.183643
	H389	H	1.012547	-0.097026	1.179248
	O390	O	-0.126873	1.073185	-0.121632
	H391	H	-0.138793	1.062811	-0.120525
	H392	H	-0.118494	1.067078	-0.127855
	O393	O	1.178454	0.974349	0.057643
	H394	H	1.177971	0.970980	0.042521
	H395	H	1.171040	0.971881	0.052364
	O396	O	1.120435	0.085337	1.133851
	H397	H	1.124604	0.088324	1.115699
	H398	H	1.121698	0.082157	1.136102
	O399	O	-0.179946	1.013297	0.877469
	H400	H	-0.182478	1.006823	0.899640
	H401	H	-0.184631	0.992502	0.885655
	O402	O	0.885597	1.125302	0.923447
	H403	H	0.882365	1.132000	0.912892
	H404	H	0.877972	1.124903	0.920181
	O405	O	0.533570	0.497277	0.442252
	H406	H	0.525234	0.502131	0.444660
	H407	H	0.536308	0.496749	0.453060
