data_Molecule from HDF5

_cell_length_a		16.226332
_cell_length_b		16.266441
_cell_length_c		16.224561
_cell_angle_alpha	90.187999
_cell_angle_beta	89.945997
_cell_angle_gamma	90.059667
_symmetry_space_group_name_H-M	'P 1'
_symmetry_Int_Tables_number		1

loop_
	_symmetry_equiv_pos_as_xyz
	x,y,z

loop_
	_atom_site_label
	_atom_site_type_symbol
	_atom_site_fract_x
	_atom_site_fract_y
	_atom_site_fract_z
	H0	H	0.399157	0.834578	0.712531
	H1	H	0.594470	0.163272	0.714164
	H2	H	0.594937	0.834665	0.285565
	H3	H	0.398914	0.163637	0.287118
	H4	H	0.709098	0.400283	0.836693
	H5	H	0.709007	0.598752	0.165261
	H6	H	0.282862	0.594704	0.835156
	H7	H	0.282735	0.402514	0.165113
	H8	H	0.832772	0.712984	0.401338
	H9	H	0.160309	0.712716	0.599552
	H10	H	0.832513	0.284101	0.598858
	H11	H	0.160647	0.284292	0.400610
	H12	H	0.831808	0.400244	0.713625
	H13	H	0.159811	0.596735	0.714739
	H14	H	0.831592	0.595682	0.287551
	H15	H	0.160246	0.399621	0.284484
	H16	H	0.396645	0.712877	0.836061
	H17	H	0.594186	0.715427	0.164075
	H18	H	0.594893	0.283662	0.837167
	H19	H	0.396588	0.284717	0.164714
	H20	H	0.710842	0.835448	0.402189
	H21	H	0.710919	0.163370	0.598602
	H22	H	0.283108	0.834684	0.597442
	H23	H	0.283600	0.163507	0.403271
	H24	H	0.898441	0.334482	0.212478
	H25	H	0.094748	0.662291	0.214909
	H26	H	0.093554	0.334925	0.786025
	H27	H	0.897123	0.662949	0.785726
	H28	H	0.210620	0.900373	0.336146
	H29	H	0.209563	0.096832	0.664752
	H30	H	0.783610	0.095958	0.335081
	H31	H	0.782681	0.901719	0.664603
	H32	H	0.330893	0.210335	0.903404
	H33	H	0.659684	0.213926	0.099257
	H34	H	0.331402	0.787195	0.097357
	H35	H	0.660139	0.783122	0.899793
	H36	H	0.332473	0.901052	0.214183
	H37	H	0.660859	0.096980	0.212488
	H38	H	0.331348	0.094707	0.787714
	H39	H	0.661365	0.902267	0.786563
	H40	H	0.897474	0.212848	0.335771
	H41	H	0.095324	0.214007	0.663901
	H42	H	0.096403	0.783850	0.336426
	H43	H	0.897828	0.785143	0.664240
	H44	H	0.210411	0.334575	0.900354
	H45	H	0.210291	0.662627	0.099304
	H46	H	0.780623	0.335280	0.098399
	H47	H	0.780509	0.662978	0.902033
	H48	H	0.413758	0.113747	0.596882
	H49	H	0.586938	0.882971	0.594395
	H50	H	0.595341	0.115995	0.412067
	H51	H	0.403755	0.879361	0.393935
	H52	H	0.587893	0.407209	0.117746
	H53	H	0.581330	0.596597	0.884375
	H54	H	0.402073	0.591261	0.116577
	H55	H	0.399183	0.409044	0.883530
	H56	H	0.115527	0.593089	0.400559
	H57	H	0.878417	0.591608	0.593316
	H58	H	0.114130	0.400719	0.589722
	H59	H	0.881696	0.413050	0.407253
	H60	H	0.111549	0.410714	0.590864
	H61	H	0.878832	0.592078	0.593528
	H62	H	0.113921	0.597461	0.411539
	H63	H	0.876523	0.401279	0.399824
	H64	H	0.404365	0.595290	0.116828
	H65	H	0.595054	0.593332	0.880834
	H66	H	0.586809	0.405910	0.117996
	H67	H	0.407896	0.404670	0.885102
	H68	H	0.592970	0.119081	0.399607
	H69	H	0.589720	0.883398	0.588280
	H70	H	0.399291	0.114424	0.583486
	H71	H	0.413394	0.886317	0.411114
	H72	H	0.903176	0.618178	0.100861
	H73	H	0.094232	0.379239	0.094609
	H74	H	0.085592	0.614995	0.905934
	H75	H	0.901778	0.383525	0.911281
	H76	H	0.096702	0.908852	0.618669
	H77	H	0.092350	0.099877	0.379629
	H78	H	0.907988	0.085207	0.613803
	H79	H	0.901923	0.908648	0.383425
	H80	H	0.613851	0.086536	0.900140
	H81	H	0.381410	0.083969	0.092298
	H82	H	0.613810	0.908487	0.095540
	H83	H	0.381788	0.909498	0.911912
	H84	H	0.614594	0.902987	0.091345
	H85	H	0.375677	0.094374	0.100619
	H86	H	0.616691	0.101798	0.904512
	H87	H	0.377953	0.908594	0.898642
	H88	H	0.908474	0.098462	0.616955
	H89	H	0.096308	0.086280	0.382269
	H90	H	0.083922	0.908946	0.615214
	H91	H	0.908175	0.905611	0.384569
	H92	H	0.090463	0.615034	0.910884
	H93	H	0.083878	0.381516	0.095746
	H94	H	0.908042	0.613037	0.090041
	H95	H	0.898256	0.381128	0.905131
	H96	H	0.395668	0.120068	0.602127
	H97	H	0.593074	0.881392	0.593255
	H98	H	0.583745	0.113605	0.407318
	H99	H	0.393093	0.880833	0.411931
	H100	H	0.588483	0.405335	0.118446
	H101	H	0.586093	0.583663	0.886895
	H102	H	0.399475	0.595377	0.118817
	H103	H	0.399999	0.399454	0.880885
	H104	H	0.111517	0.585495	0.409225
	H105	H	0.879097	0.592009	0.592511
	H106	H	0.115120	0.405588	0.598502
	H107	H	0.880214	0.400019	0.414271
	H108	H	0.895742	0.616992	0.090462
	H109	H	0.089140	0.383100	0.087045
	H110	H	0.092083	0.617413	0.904114
	H111	H	0.905334	0.382534	0.904664
	H112	H	0.089890	0.897918	0.620310
	H113	H	0.082855	0.090705	0.385244
	H114	H	0.896965	0.091204	0.618556
	H115	H	0.903574	0.901956	0.381284
	H116	H	0.610481	0.090547	0.915248
	H117	H	0.378985	0.097228	0.087126
	H118	H	0.611710	0.908507	0.089072
	H119	H	0.377265	0.897242	0.906897
	C120	C	0.374918	0.007247	0.621677
	C121	C	0.618229	0.990922	0.621079
	C122	C	0.618943	0.007853	0.377739
	C123	C	0.375256	0.991051	0.378440
	C124	C	0.616375	0.377648	0.009458
	C125	C	0.616420	0.620787	0.992185
	C126	C	0.373710	0.621118	0.008864
	C127	C	0.373832	0.376856	0.991893
	C128	C	0.004843	0.620110	0.378832
	C129	C	0.987188	0.620412	0.622000
	C130	C	0.005016	0.377364	0.621304
	C131	C	0.987772	0.376729	0.378146
	C132	C	0.873861	0.507468	0.122005
	C133	C	0.117270	0.489955	0.121305
	C134	C	0.117217	0.507075	0.878828
	C135	C	0.873497	0.490780	0.878489
	C136	C	0.118493	0.876936	0.509049
	C137	C	0.118233	0.120532	0.491445
	C138	C	0.875510	0.120503	0.508243
	C139	C	0.875287	0.877387	0.491714
	C140	C	0.504641	0.120452	0.878561
	C141	C	0.487393	0.120551	0.121855
	C142	C	0.504978	0.878634	0.120468
	C143	C	0.487736	0.876664	0.877329
	C144	C	0.378229	0.883639	0.675388
	C145	C	0.615060	0.114411	0.676184
	C146	C	0.615867	0.883997	0.322966
	C147	C	0.378619	0.114694	0.324718
	C148	C	0.670943	0.380285	0.885494
	C149	C	0.671484	0.618974	0.115923
	C150	C	0.319831	0.616626	0.884529
	C151	C	0.319591	0.380733	0.115687
	C152	C	0.881484	0.675016	0.381183
	C153	C	0.111197	0.674864	0.619549
	C154	C	0.881158	0.322358	0.618829
	C155	C	0.111595	0.322208	0.380320
	C156	C	0.881018	0.379890	0.676056
	C157	C	0.111159	0.617156	0.676625
	C158	C	0.881012	0.616857	0.324416
	C159	C	0.111360	0.379497	0.322580
	C160	C	0.376472	0.675094	0.884982
	C161	C	0.614614	0.677164	0.115313
	C162	C	0.614195	0.322492	0.885732
	C163	C	0.376255	0.322430	0.115541
	C164	C	0.673403	0.884189	0.380961
	C165	C	0.672866	0.114483	0.618699
	C166	C	0.320507	0.883743	0.618106
	C167	C	0.321026	0.114457	0.382529
	C168	C	0.877171	0.383725	0.175744
	C169	C	0.114674	0.613527	0.176611
	C170	C	0.114400	0.383686	0.823845
	C171	C	0.876444	0.614084	0.823531
	C172	C	0.173101	0.879817	0.385215
	C173	C	0.172285	0.117684	0.615515
	C174	C	0.820874	0.117185	0.384174
	C175	C	0.820052	0.880877	0.615414
	C176	C	0.380333	0.173808	0.882167
	C177	C	0.610935	0.175835	0.119249
	C178	C	0.380525	0.824675	0.117830
	C179	C	0.611356	0.821466	0.879769
	C180	C	0.381140	0.881114	0.175878
	C181	C	0.611559	0.117940	0.175581
	C182	C	0.380437	0.115973	0.824932
	C183	C	0.611955	0.880297	0.823398
	C184	C	0.877344	0.175384	0.384750
	C185	C	0.115626	0.175775	0.615068
	C186	C	0.116193	0.821993	0.385432
	C187	C	0.877488	0.823222	0.615391
	C188	C	0.172189	0.383620	0.880989
	C189	C	0.172271	0.613516	0.119361
	C190	C	0.818576	0.384001	0.119124
	C191	C	0.818386	0.614099	0.881176
	C192	C	0.396491	0.093741	0.600411
	C193	C	0.596259	0.904771	0.598669
	C194	C	0.597131	0.094110	0.399766
	C195	C	0.396910	0.904478	0.399580
	C196	C	0.594386	0.399851	0.095847
	C197	C	0.594023	0.597872	0.906016
	C198	C	0.395396	0.600053	0.095130
	C199	C	0.395780	0.398088	0.905507
	C200	C	0.091364	0.598437	0.400631
	C201	C	0.900974	0.598372	0.599696
	C202	C	0.091111	0.399197	0.599534
	C203	C	0.901815	0.398356	0.400489
	C204	C	0.895815	0.593764	0.100137
	C205	C	0.095631	0.403654	0.098985
	C206	C	0.095654	0.593521	0.900618
	C207	C	0.895380	0.404742	0.900482
	C208	C	0.096673	0.898711	0.595779
	C209	C	0.096742	0.098820	0.404926
	C210	C	0.897970	0.098325	0.594317
	C211	C	0.897669	0.899130	0.405420
	C212	C	0.591181	0.099184	0.900186
	C213	C	0.400966	0.098351	0.099822
	C214	C	0.591096	0.900099	0.098487
	C215	C	0.401330	0.898471	0.899362
	Zn216	Zn	0.496652	-0.001094	0.749782
	Zn217	Zn	0.496850	-0.000788	0.249466
	Zn218	Zn	0.744672	0.499477	0.000839
	Zn219	Zn	0.245890	0.498881	0.000156
	Zn220	Zn	-0.003220	0.748476	0.500342
	Zn221	Zn	-0.003448	0.248902	0.500006
	Zn222	Zn	-0.003988	0.498845	0.749977
	Zn223	Zn	-0.003725	0.498480	0.250227
	Zn224	Zn	0.495384	0.749765	0.000107
	Zn225	Zn	0.495589	0.248582	0.000405
	Zn226	Zn	0.747317	-0.000347	0.500115
	Zn227	Zn	0.246179	-0.001267	0.500210
	N228	N	0.411266	0.961543	0.677722
	N229	N	0.582028	0.036478	0.677879
	N230	N	0.582486	0.961873	0.321236
	N231	N	0.411440	0.036794	0.321956
	N232	N	0.672425	0.414031	0.963345
	N233	N	0.672506	0.584443	0.038365
	N234	N	0.317868	0.584047	0.962503
	N235	N	0.318025	0.413935	0.037938
	N236	N	0.959460	0.677071	0.414223
	N237	N	0.033202	0.677034	0.586296
	N238	N	0.959135	0.320384	0.585615
	N239	N	0.033878	0.320381	0.414305
	N240	N	0.958736	0.413619	0.677541
	N241	N	0.033027	0.584109	0.678347
	N242	N	0.958771	0.583247	0.323012
	N243	N	0.033511	0.412663	0.321212
	N244	N	0.409419	0.677846	0.963021
	N245	N	0.581314	0.678535	0.037440
	N246	N	0.580812	0.320875	0.963649
	N247	N	0.409377	0.319885	0.037463
	N248	N	0.675512	0.962048	0.414178
	N249	N	0.674830	0.036794	0.585109
	N250	N	0.318413	0.961615	0.585422
	N251	N	0.319035	0.036499	0.415296
	N252	N	0.910443	0.461440	0.177764
	N253	N	0.081212	0.535806	0.177916
	N254	N	0.080720	0.461244	0.822611
	N255	N	0.909906	0.536272	0.821710
	N256	N	0.174683	0.913146	0.463198
	N257	N	0.174031	0.084119	0.537671
	N258	N	0.819543	0.083903	0.461896
	N259	N	0.818474	0.913748	0.537280
	N260	N	0.458455	0.176641	0.914914
	N261	N	0.532836	0.177556	0.086368
	N262	N	0.458335	0.822730	0.084231
	N263	N	0.533161	0.819189	0.912574
	N264	N	0.459205	0.913982	0.177600
	N265	N	0.533721	0.084435	0.177459
	N266	N	0.458703	0.083526	0.822689
	N267	N	0.534121	0.913641	0.821730
	N268	N	0.910765	0.177448	0.462835
	N269	N	0.082370	0.177424	0.537004
	N270	N	0.082804	0.820275	0.463412
	N271	N	0.911013	0.820797	0.537720
	N272	N	0.173946	0.461484	0.914534
	N273	N	0.173882	0.535857	0.085685
	N274	N	0.816160	0.462092	0.086646
	N275	N	0.816341	0.536496	0.914549
	O276	O	0.976984	-0.004479	1.010044
	H277	H	0.980064	-0.004508	1.007222
	H278	H	0.975126	-0.002175	1.016874
	O279	O	0.573506	0.553701	0.561314
	H280	H	0.572855	0.553812	0.564922
	H281	H	0.573649	0.552619	0.562237
	O282	O	0.976379	0.997037	0.010475
	H283	H	0.977995	0.996191	0.011448
	H284	H	0.976688	0.995575	0.007927
	O285	O	0.570102	0.562641	0.553277
	H286	H	0.573792	0.567421	0.555860
	H287	H	0.569149	0.562284	0.553541
