data_Molecule from HDF5

_cell_length_a		16.348577
_cell_length_b		16.071208
_cell_length_c		16.332089
_cell_angle_alpha	89.956053
_cell_angle_beta	90.477976
_cell_angle_gamma	90.302285
_symmetry_space_group_name_H-M	'P 1'
_symmetry_Int_Tables_number		1

loop_
	_symmetry_equiv_pos_as_xyz
	x,y,z

loop_
	_atom_site_label
	_atom_site_type_symbol
	_atom_site_fract_x
	_atom_site_fract_y
	_atom_site_fract_z
	H0	H	0.405626	0.832608	0.710119
	H1	H	0.610048	0.160724	0.715872
	H2	H	0.605693	0.833818	0.283524
	H3	H	0.402631	0.159967	0.278361
	H4	H	0.721452	0.392990	0.835695
	H5	H	0.724986	0.599738	0.158876
	H6	H	0.284795	0.599718	0.837729
	H7	H	0.285697	0.389623	0.158293
	H8	H	0.841331	0.712310	0.396519
	H9	H	0.166332	0.714687	0.598864
	H10	H	0.840993	0.281661	0.594530
	H11	H	0.165638	0.283436	0.398797
	H12	H	0.842493	0.393720	0.716282
	H13	H	0.164347	0.604832	0.720445
	H14	H	0.844349	0.602662	0.273886
	H15	H	0.164168	0.393455	0.279454
	H16	H	0.403007	0.712485	0.836552
	H17	H	0.605234	0.711414	0.161385
	H18	H	0.601274	0.280724	0.834456
	H19	H	0.407748	0.279511	0.160841
	H20	H	0.720470	0.835595	0.395123
	H21	H	0.721460	0.161761	0.599031
	H22	H	0.284769	0.836104	0.601816
	H23	H	0.288852	0.162229	0.393334
	H24	H	0.902616	0.332939	0.212450
	H25	H	0.108250	0.659824	0.213625
	H26	H	0.101926	0.333759	0.782605
	H27	H	0.901631	0.662134	0.781030
	H28	H	0.223935	0.894270	0.337031
	H29	H	0.226076	0.105685	0.657943
	H30	H	0.785573	0.100542	0.336952
	H31	H	0.788253	0.895048	0.659398
	H32	H	0.342828	0.208076	0.897524
	H33	H	0.667757	0.211811	0.098272
	H34	H	0.341609	0.779567	0.096944
	H35	H	0.666904	0.780009	0.900805
	H36	H	0.344645	0.890586	0.217716
	H37	H	0.666201	0.100748	0.218578
	H38	H	0.345633	0.099264	0.777513
	H39	H	0.665980	0.891507	0.780163
	H40	H	0.904940	0.212735	0.334774
	H41	H	0.103223	0.213322	0.660295
	H42	H	0.103347	0.781429	0.335531
	H43	H	0.905999	0.781358	0.660148
	H44	H	0.217556	0.333125	0.894835
	H45	H	0.224771	0.658267	0.101466
	H46	H	0.788303	0.332717	0.099190
	H47	H	0.786625	0.660241	0.894411
	H48	H	0.422337	0.115964	0.596730
	H49	H	0.593873	0.878246	0.596925
	H50	H	0.590550	0.112314	0.414987
	H51	H	0.414037	0.880644	0.407007
	H52	H	0.599881	0.414531	0.110607
	H53	H	0.597612	0.586857	0.882757
	H54	H	0.423265	0.587556	0.111338
	H55	H	0.407076	0.407550	0.882796
	H56	H	0.120552	0.596477	0.407628
	H57	H	0.890778	0.589727	0.580905
	H58	H	0.116487	0.408836	0.585761
	H59	H	0.885938	0.399360	0.404818
	H60	H	0.118799	0.414483	0.594846
	H61	H	0.890433	0.579430	0.592464
	H62	H	0.116694	0.583558	0.410313
	H63	H	0.891527	0.411310	0.410011
	H64	H	0.407695	0.589274	0.117497
	H65	H	0.594263	0.585705	0.883509
	H66	H	0.588892	0.401035	0.111478
	H67	H	0.414995	0.401981	0.883020
	H68	H	0.603653	0.117528	0.409588
	H69	H	0.592410	0.881811	0.583540
	H70	H	0.420459	0.112007	0.579902
	H71	H	0.413984	0.882588	0.411472
	H72	H	0.916332	0.615319	0.091231
	H73	H	0.093911	0.376297	0.097606
	H74	H	0.099069	0.618654	0.901195
	H75	H	0.908564	0.379255	0.910399
	H76	H	0.101641	0.911668	0.613232
	H77	H	0.108246	0.088108	0.378852
	H78	H	0.910132	0.088082	0.613960
	H79	H	0.911124	0.898836	0.380089
	H80	H	0.619905	0.082317	0.907382
	H81	H	0.386597	0.080874	0.105004
	H82	H	0.618055	0.909520	0.090589
	H83	H	0.389845	0.905198	0.904751
	H84	H	0.621500	0.904996	0.096333
	H85	H	0.386013	0.100995	0.084890
	H86	H	0.622969	0.088408	0.902356
	H87	H	0.388865	0.905249	0.901751
	H88	H	0.914824	0.086762	0.612095
	H89	H	0.090560	0.081590	0.386032
	H90	H	0.092481	0.912079	0.609635
	H91	H	0.902554	0.910917	0.381548
	H92	H	0.086159	0.612466	0.909355
	H93	H	0.087558	0.381461	0.085206
	H94	H	0.917940	0.611865	0.083617
	H95	H	0.910991	0.377788	0.900938
	H96	H	0.407569	0.118222	0.588976
	H97	H	0.604920	0.877610	0.588253
	H98	H	0.591646	0.116328	0.400816
	H99	H	0.410926	0.880191	0.409747
	H100	H	0.605114	0.399214	0.116556
	H101	H	0.594522	0.589101	0.882787
	H102	H	0.412196	0.574976	0.110689
	H103	H	0.407111	0.398860	0.879448
	H104	H	0.120994	0.587300	0.397365
	H105	H	0.885313	0.594247	0.594780
	H106	H	0.121490	0.403429	0.594854
	H107	H	0.887187	0.410855	0.396179
	H108	H	0.910322	0.615339	0.085579
	H109	H	0.101665	0.377024	0.085183
	H110	H	0.101530	0.614173	0.916961
	H111	H	0.917567	0.382312	0.907195
	H112	H	0.095237	0.904074	0.613464
	H113	H	0.092776	0.100432	0.379210
	H114	H	0.914019	0.091324	0.614554
	H115	H	0.917251	0.911468	0.384928
	H116	H	0.621319	0.089954	0.910806
	H117	H	0.396680	0.074739	0.078988
	H118	H	0.619767	0.902410	0.088437
	H119	H	0.388343	0.902817	0.903131
	C120	C	0.385110	0.007057	0.618424
	C121	C	0.627548	0.987914	0.619877
	C122	C	0.624693	0.006941	0.378244
	C123	C	0.383241	0.989039	0.377140
	C124	C	0.626490	0.374490	0.005814
	C125	C	0.626645	0.618242	0.989546
	C126	C	0.382835	0.616025	0.007098
	C127	C	0.381568	0.372390	0.988836
	C128	C	0.012529	0.619450	0.374284
	C129	C	0.995324	0.619747	0.620081
	C130	C	0.012074	0.376934	0.620294
	C131	C	0.994847	0.376529	0.375018
	C132	C	0.884331	0.505561	0.117276
	C133	C	0.125847	0.486683	0.119158
	C134	C	0.124203	0.506523	0.878115
	C135	C	0.882110	0.488372	0.875882
	C136	C	0.125900	0.877807	0.505891
	C137	C	0.127396	0.121184	0.488406
	C138	C	0.882777	0.118938	0.506567
	C139	C	0.881564	0.876062	0.489134
	C140	C	0.514700	0.117104	0.876075
	C141	C	0.496869	0.117001	0.120262
	C142	C	0.512980	0.874270	0.120834
	C143	C	0.495981	0.873718	0.875187
	C144	C	0.385394	0.882688	0.673571
	C145	C	0.628618	0.111375	0.677419
	C146	C	0.624836	0.883132	0.321464
	C147	C	0.383585	0.111393	0.317847
	C148	C	0.682450	0.374291	0.883989
	C149	C	0.685566	0.618619	0.110760
	C150	C	0.324071	0.617936	0.885932
	C151	C	0.324902	0.371242	0.110407
	C152	C	0.890346	0.674907	0.375974
	C153	C	0.117589	0.676661	0.619043
	C154	C	0.889783	0.319691	0.616341
	C155	C	0.116967	0.320718	0.377984
	C156	C	0.890543	0.375594	0.676638
	C157	C	0.116391	0.622050	0.679660
	C158	C	0.891860	0.620439	0.314694
	C159	C	0.115994	0.375578	0.318613
	C160	C	0.383106	0.673998	0.885234
	C161	C	0.625654	0.674053	0.112224
	C162	C	0.622961	0.318041	0.883480
	C163	C	0.385605	0.316509	0.111673
	C164	C	0.681802	0.883942	0.377362
	C165	C	0.683944	0.112125	0.619194
	C166	C	0.325788	0.884259	0.618831
	C167	C	0.326822	0.112636	0.375044
	C168	C	0.883629	0.382071	0.174280
	C169	C	0.127432	0.610297	0.175983
	C170	C	0.122117	0.382953	0.820534
	C171	C	0.882285	0.612418	0.819058
	C172	C	0.183869	0.876237	0.384753
	C173	C	0.185881	0.123204	0.609731
	C174	C	0.825040	0.118987	0.384764
	C175	C	0.826070	0.875654	0.611082
	C176	C	0.392007	0.171857	0.877199
	C177	C	0.618724	0.174304	0.118962
	C178	C	0.390736	0.817085	0.118245
	C179	C	0.618132	0.817363	0.879173
	C180	C	0.392337	0.872528	0.178278
	C181	C	0.618170	0.118685	0.178504
	C182	C	0.393608	0.117386	0.817495
	C183	C	0.617534	0.872761	0.818969
	C184	C	0.884265	0.175049	0.383807
	C185	C	0.124819	0.176817	0.611027
	C186	C	0.123878	0.820278	0.383920
	C187	C	0.884977	0.819339	0.611328
	C188	C	0.179517	0.382504	0.876809
	C189	C	0.185209	0.609603	0.120022
	C190	C	0.826734	0.381885	0.117708
	C191	C	0.825091	0.611634	0.875702
	C192	C	0.409592	0.093035	0.595268
	C193	C	0.603840	0.901667	0.596390
	C194	C	0.601951	0.092852	0.401549
	C195	C	0.406244	0.903543	0.402129
	C196	C	0.604613	0.398078	0.090842
	C197	C	0.602617	0.594091	0.904916
	C198	C	0.407283	0.591211	0.091401
	C199	C	0.403402	0.395885	0.903929
	C200	C	0.097514	0.595987	0.397917
	C201	C	0.910706	0.595096	0.596215
	C202	C	0.096874	0.401572	0.598272
	C203	C	0.910323	0.400211	0.397142
	C204	C	0.908076	0.591999	0.093631
	C205	C	0.101416	0.400651	0.096107
	C206	C	0.102196	0.592651	0.902262
	C207	C	0.905529	0.402242	0.899316
	C208	C	0.103079	0.902138	0.590248
	C209	C	0.104017	0.097133	0.403336
	C210	C	0.906161	0.095489	0.591499
	C211	C	0.903661	0.900077	0.404202
	C212	C	0.599562	0.093686	0.899943
	C213	C	0.411739	0.092307	0.096564
	C214	C	0.597627	0.898512	0.098247
	C215	C	0.411117	0.897482	0.896786
	Zn216	Zn	0.506517	-0.003129	0.746751
	Zn217	Zn	0.505416	-0.003620	0.250285
	Zn218	Zn	0.756042	0.496492	-0.002912
	Zn219	Zn	0.253022	0.495106	-0.002030
	Zn220	Zn	0.003634	0.747577	0.497269
	Zn221	Zn	0.004340	0.248351	0.496928
	Zn222	Zn	0.003528	0.498900	0.750002
	Zn223	Zn	0.004579	0.496467	0.245454
	Zn224	Zn	0.504210	0.745699	-0.001597
	Zn225	Zn	0.504798	0.244557	-0.002214
	Zn226	Zn	0.752893	-0.002097	0.498336
	Zn227	Zn	0.255882	-0.000266	0.497833
	N228	N	0.421611	0.960020	0.673589
	N229	N	0.594256	0.032979	0.677956
	N230	N	0.589712	0.960434	0.321923
	N231	N	0.417968	0.033469	0.318856
	N232	N	0.684769	0.408612	0.961087
	N233	N	0.686441	0.584638	0.033451
	N234	N	0.323817	0.582377	0.962553
	N235	N	0.322293	0.405374	0.033156
	N236	N	0.966361	0.674359	0.412170
	N237	N	0.041332	0.675340	0.582452
	N238	N	0.966335	0.320467	0.581990
	N239	N	0.040778	0.321208	0.412572
	N240	N	0.967495	0.410548	0.679044
	N241	N	0.039552	0.587170	0.680364
	N242	N	0.969064	0.586365	0.313578
	N243	N	0.039027	0.409651	0.316624
	N244	N	0.418850	0.673139	0.961593
	N245	N	0.589789	0.674063	0.035883
	N246	N	0.588911	0.317860	0.960155
	N247	N	0.419862	0.316709	0.035147
	N248	N	0.682038	0.961846	0.412071
	N249	N	0.683349	0.034501	0.584136
	N250	N	0.325421	0.962797	0.585169
	N251	N	0.326364	0.035557	0.411276
	N252	N	0.918652	0.460206	0.174409
	N253	N	0.091171	0.532821	0.175668
	N254	N	0.088441	0.461114	0.821089
	N255	N	0.916842	0.534675	0.819161
	N256	N	0.185330	0.911358	0.461545
	N257	N	0.187653	0.089310	0.532366
	N258	N	0.823884	0.084868	0.462063
	N259	N	0.823681	0.910177	0.533947
	N260	N	0.468342	0.171786	0.912971
	N261	N	0.542203	0.173326	0.083447
	N262	N	0.466944	0.817883	0.083350
	N263	N	0.541649	0.817872	0.913454
	N264	N	0.469289	0.907304	0.179972
	N265	N	0.541065	0.084044	0.179695
	N266	N	0.471051	0.084028	0.816629
	N267	N	0.540558	0.906786	0.816072
	N268	N	0.919415	0.175141	0.460383
	N269	N	0.089300	0.175977	0.534484
	N270	N	0.088788	0.820754	0.460182
	N271	N	0.918609	0.819386	0.534553
	N272	N	0.180820	0.460254	0.912025
	N273	N	0.184471	0.531773	0.085505
	N274	N	0.826954	0.459880	0.083199
	N275	N	0.824726	0.533465	0.910160
	O276	O	0.152702	0.009863	0.060455
	H277	H	0.152159	0.012571	0.051330
	H278	H	0.146074	0.007554	0.059856
	O279	O	0.387076	0.647924	0.410132
	H280	H	0.387629	0.658911	0.396247
	H281	H	0.380925	0.663659	0.415099
	O282	O	1.136239	0.045042	0.068206
	H283	H	1.133486	0.048704	0.057581
	H284	H	1.137533	0.054587	0.076686
	O285	O	-0.024729	0.842191	-0.051360
	H286	H	-0.020109	0.851701	-0.064878
	H287	H	-0.022655	0.848509	-0.055297
	O288	O	0.388466	0.552154	0.417604
	H289	H	0.374108	0.548837	0.412133
	H290	H	0.382142	0.565435	0.418937
	O291	O	0.438427	0.430097	0.453776
	H292	H	0.419200	0.442673	0.452572
	H293	H	0.441600	0.435277	0.449608
	O294	O	1.056869	1.100913	0.937239
	H295	H	1.060536	1.081788	0.945423
	H296	H	1.069298	1.095421	0.926732
	O297	O	-0.004147	0.031570	-0.156192
	H298	H	0.001080	0.042044	-0.153278
	H299	H	0.009216	0.037468	-0.153044
	O300	O	0.583091	0.553803	0.392394
	H301	H	0.591162	0.546978	0.395052
	H302	H	0.577358	0.532427	0.382950
	O303	O	-0.007742	0.898120	1.064119
	H304	H	0.013050	0.906366	1.070543
	H305	H	-0.007321	0.885820	1.060336
	O306	O	0.647921	0.485594	0.589596
	H307	H	0.644695	0.491304	0.587383
	H308	H	0.660586	0.486469	0.588417
	O309	O	1.025646	0.005957	0.019705
	H310	H	1.022760	0.008757	0.017018
	H311	H	1.032580	0.006955	0.018492
	O312	O	0.091272	0.111960	1.034971
	H313	H	0.084193	0.101688	1.031668
	H314	H	0.094081	0.121242	1.043423
	O315	O	0.535362	0.528730	0.649747
	H316	H	0.536845	0.524150	0.649318
	H317	H	0.542270	0.535553	0.641005
	O318	O	0.518045	0.340972	0.601999
	H319	H	0.500258	0.348319	0.613495
	H320	H	0.524400	0.331663	0.613420
	O321	O	0.349399	0.515264	0.630961
	H322	H	0.345258	0.518597	0.621352
	H323	H	0.353659	0.524281	0.629216
	O324	O	0.409482	0.451297	0.473193
	H325	H	0.411064	0.441365	0.481897
	H326	H	0.407984	0.454995	0.474453
	O327	O	-0.099649	1.059460	0.991604
	H328	H	-0.106091	1.071622	0.977449
	H329	H	-0.088762	1.051424	0.991678
	O330	O	0.524097	0.333593	0.381551
	H331	H	0.514101	0.334984	0.380667
	H332	H	0.514017	0.325036	0.384887
	O333	O	-0.075350	1.088582	1.089292
	H334	H	-0.067486	1.089829	1.073644
	H335	H	-0.084266	1.105337	1.082500
	O336	O	0.994186	1.008808	1.102378
	H337	H	0.989660	1.002514	1.113852
	H338	H	0.988247	1.020859	1.093234
	O339	O	0.390593	0.390148	0.490972
	H340	H	0.383606	0.397425	0.482348
	H341	H	0.380843	0.390275	0.496697
	O342	O	0.805921	-0.013468	-0.019548
	H343	H	0.807787	-0.011193	0.000383
	H344	H	0.806942	-0.031846	-0.020508
	O345	O	0.411010	0.476300	0.456848
	H346	H	0.416440	0.489505	0.456998
	H347	H	0.414394	0.470956	0.448499
	O348	O	1.024261	1.051173	0.853776
	H349	H	1.042966	1.050209	0.859129
	H350	H	1.017698	1.050329	0.866801
	O351	O	0.969332	0.799986	0.023862
	H352	H	0.969158	0.787515	0.031722
	H353	H	0.948679	0.789467	0.020429
	O354	O	0.556224	0.375232	0.399801
	H355	H	0.555383	0.365604	0.402100
	H356	H	0.564451	0.354709	0.392928
	O357	O	0.553533	0.462630	0.499179
	H358	H	0.557700	0.458953	0.500987
	H359	H	0.558638	0.457288	0.488456
	O360	O	-0.050510	0.064432	-0.045918
	H361	H	-0.045107	0.071488	-0.039998
	H362	H	-0.047450	0.066804	-0.055017
	O363	O	0.510872	0.580985	0.538920
	H364	H	0.513765	0.558789	0.526656
	H365	H	0.498452	0.585493	0.546486
	O366	O	0.012465	-0.088126	0.992968
	H367	H	-0.002304	-0.085106	1.003685
	H368	H	0.014099	-0.074416	0.993395
	O369	O	0.565406	0.577666	0.369031
	H370	H	0.567439	0.596078	0.363336
	H371	H	0.589454	0.568284	0.383386
	O372	O	0.498953	0.541239	0.435233
	H373	H	0.488326	0.542605	0.446174
	H374	H	0.508543	0.558397	0.440636
	O375	O	0.578322	0.468258	0.473768
	H376	H	0.590467	0.479319	0.468690
	H377	H	0.581011	0.463435	0.478314
	O378	O	0.497518	0.557166	0.608968
	H379	H	0.486554	0.564769	0.607202
	H380	H	0.507863	0.560076	0.609097
	O381	O	0.568638	0.507185	0.691784
	H382	H	0.577724	0.516807	0.694386
	H383	H	0.568416	0.498779	0.697421
	O384	O	0.128554	1.075211	0.065333
	H385	H	0.134723	1.080928	0.068468
	H386	H	0.124588	1.069647	0.079213
	O387	O	0.940108	-0.021076	0.970698
	H388	H	0.924192	-0.025430	0.974491
	H389	H	0.943840	-0.038753	0.963838
	O390	O	-0.072129	0.906886	-0.008236
	H391	H	-0.068072	0.933517	-0.013690
	H392	H	-0.086052	0.900044	-0.015429
	O393	O	1.076081	1.025178	0.111557
	H394	H	1.066747	1.023428	0.112102
	H395	H	1.071164	1.021443	0.122812
	O396	O	0.543125	0.443241	0.506855
	H397	H	0.547575	0.446808	0.507840
	H398	H	0.538998	0.442582	0.502164
	O399	O	-0.009610	1.000830	0.839345
	H400	H	-0.014055	1.007938	0.843157
	H401	H	0.002407	0.999130	0.851038
	O402	O	0.620651	1.635854	0.588594
	H403	H	0.619179	1.644393	0.586899
	H404	H	0.617842	1.631201	0.595518
	O405	O	0.421039	0.663532	0.424386
	H406	H	0.415657	0.655001	0.438187
	H407	H	0.440295	0.667259	0.415749
