data_Molecule from HDF5

_cell_length_a		16.247997
_cell_length_b		16.282604
_cell_length_c		16.570979
_cell_angle_alpha	90.087778
_cell_angle_beta	89.913864
_cell_angle_gamma	89.944714
_symmetry_space_group_name_H-M	'P 1'
_symmetry_Int_Tables_number		1

loop_
	_symmetry_equiv_pos_as_xyz
	x,y,z

loop_
	_atom_site_label
	_atom_site_type_symbol
	_atom_site_fract_x
	_atom_site_fract_y
	_atom_site_fract_z
	H0	H	0.398157	0.842173	0.736098
	H1	H	0.617510	0.157718	0.736290
	H2	H	0.615467	0.840271	0.288206
	H3	H	0.398696	0.157275	0.287940
	H4	H	0.730825	0.395787	0.852311
	H5	H	0.731861	0.604498	0.169003
	H6	H	0.289714	0.600944	0.853798
	H7	H	0.286507	0.390549	0.167365
	H8	H	0.847191	0.716782	0.408972
	H9	H	0.169357	0.719832	0.614244
	H10	H	0.847899	0.280694	0.617000
	H11	H	0.169970	0.279215	0.409556
	H12	H	0.851073	0.391542	0.735595
	H13	H	0.170286	0.606439	0.731824
	H14	H	0.851463	0.607597	0.287647
	H15	H	0.167675	0.388217	0.288950
	H16	H	0.405981	0.718749	0.853916
	H17	H	0.614852	0.720941	0.168569
	H18	H	0.616885	0.275904	0.853841
	H19	H	0.405543	0.277631	0.169284
	H20	H	0.724762	0.837474	0.410520
	H21	H	0.725804	0.160928	0.614426
	H22	H	0.289558	0.838440	0.614249
	H23	H	0.289514	0.160177	0.409402
	H24	H	0.899891	0.341019	0.235597
	H25	H	0.118955	0.656701	0.235499
	H26	H	0.121264	0.340227	0.785800
	H27	H	0.905629	0.658803	0.790926
	H28	H	0.231021	0.891088	0.355034
	H29	H	0.230314	0.104343	0.669926
	H30	H	0.788195	0.102284	0.353212
	H31	H	0.787013	0.897312	0.671369
	H32	H	0.348643	0.219081	0.909158
	H33	H	0.671769	0.215425	0.112714
	H34	H	0.348252	0.779699	0.112547
	H35	H	0.669838	0.779533	0.905596
	H36	H	0.348932	0.891162	0.231855
	H37	H	0.667548	0.106823	0.233897
	H38	H	0.348513	0.107385	0.791359
	H39	H	0.667127	0.891608	0.787791
	H40	H	0.903901	0.219228	0.353710
	H41	H	0.112416	0.220013	0.669715
	H42	H	0.110610	0.778487	0.353644
	H43	H	0.902478	0.778608	0.671100
	H44	H	0.229566	0.335972	0.908865
	H45	H	0.227391	0.659611	0.112543
	H46	H	0.790161	0.338842	0.113822
	H47	H	0.792738	0.660692	0.908164
	H48	H	0.417245	0.115364	0.602535
	H49	H	0.586820	0.887814	0.603023
	H50	H	0.592970	0.113044	0.417757
	H51	H	0.422881	0.884275	0.418933
	H52	H	0.599331	0.405421	0.123781
	H53	H	0.605887	0.588406	0.897570
	H54	H	0.412301	0.589627	0.127835
	H55	H	0.423435	0.409063	0.899257
	H56	H	0.123895	0.587383	0.422363
	H57	H	0.894986	0.586373	0.601672
	H58	H	0.125748	0.410988	0.605913
	H59	H	0.895230	0.412661	0.423177
	H60	H	0.124430	0.404779	0.596555
	H61	H	0.895364	0.585025	0.603393
	H62	H	0.123281	0.586903	0.425127
	H63	H	0.893612	0.411252	0.420160
	H64	H	0.423020	0.580290	0.120863
	H65	H	0.598553	0.584412	0.900606
	H66	H	0.604374	0.408791	0.125095
	H67	H	0.421864	0.407760	0.898365
	H68	H	0.593543	0.112314	0.424042
	H69	H	0.596835	0.887289	0.594743
	H70	H	0.423392	0.113482	0.604181
	H71	H	0.421501	0.885625	0.422346
	H72	H	0.920059	0.615104	0.103804
	H73	H	0.102707	0.380955	0.107637
	H74	H	0.098702	0.613648	0.915463
	H75	H	0.928811	0.385282	0.919281
	H76	H	0.093138	0.910235	0.622705
	H77	H	0.093015	0.087363	0.401628
	H78	H	0.916230	0.083425	0.622567
	H79	H	0.921532	0.909097	0.401446
	H80	H	0.626618	0.089176	0.917747
	H81	H	0.392690	0.091651	0.102450
	H82	H	0.625054	0.912384	0.105313
	H83	H	0.392670	0.915087	0.915141
	H84	H	0.625129	0.907393	0.099092
	H85	H	0.395543	0.086725	0.096397
	H86	H	0.621808	0.087033	0.927991
	H87	H	0.391760	0.902581	0.923462
	H88	H	0.921956	0.092006	0.624434
	H89	H	0.099776	0.090896	0.398228
	H90	H	0.098526	0.905771	0.626585
	H91	H	0.915688	0.900890	0.397627
	H92	H	0.094732	0.610140	0.923738
	H93	H	0.088341	0.386183	0.103219
	H94	H	0.929040	0.611624	0.103974
	H95	H	0.923186	0.386544	0.926138
	H96	H	0.421343	0.112576	0.598163
	H97	H	0.597845	0.882175	0.606678
	H98	H	0.598156	0.115917	0.420805
	H99	H	0.418921	0.882983	0.419680
	H100	H	0.599149	0.411663	0.123582
	H101	H	0.598132	0.593158	0.898217
	H102	H	0.426548	0.595336	0.124535
	H103	H	0.421323	0.410049	0.899269
	H104	H	0.123105	0.584145	0.423188
	H105	H	0.894227	0.587227	0.603219
	H106	H	0.121108	0.415930	0.596972
	H107	H	0.894213	0.409054	0.422866
	H108	H	0.923923	0.610838	0.096197
	H109	H	0.100596	0.385549	0.092552
	H110	H	0.104575	0.613761	0.923661
	H111	H	0.920113	0.383017	0.918687
	H112	H	0.100333	0.913453	0.624100
	H113	H	0.099766	0.082387	0.399881
	H114	H	0.911914	0.091589	0.627619
	H115	H	0.910970	0.910945	0.398455
	H116	H	0.622237	0.078916	0.919953
	H117	H	0.394321	0.083800	0.103690
	H118	H	0.621898	0.914916	0.098155
	H119	H	0.398107	0.915363	0.929565
	C120	C	0.387446	0.008196	0.633373
	C121	C	0.627495	0.991190	0.633228
	C122	C	0.628012	0.007571	0.389860
	C123	C	0.387046	0.989967	0.389296
	C124	C	0.633179	0.376747	0.019469
	C125	C	0.632775	0.621135	1.002768
	C126	C	0.388499	0.619887	0.020027
	C127	C	0.389365	0.376561	1.002933
	C128	C	0.017688	0.619040	0.391285
	C129	C	1.001093	0.619737	0.633443
	C130	C	0.018018	0.378041	0.632767
	C131	C	1.000053	0.377355	0.390182
	C132	C	0.889846	0.507636	0.133258
	C133	C	0.130871	0.489405	0.133480
	C134	C	0.132429	0.506672	0.888868
	C135	C	0.890928	0.490711	0.889858
	C136	C	0.129662	0.876930	0.520576
	C137	C	0.130015	0.119846	0.503853
	C138	C	0.885684	0.120711	0.520241
	C139	C	0.884325	0.876099	0.504034
	C140	C	0.517586	0.119283	0.890472
	C141	C	0.500377	0.119936	0.132577
	C142	C	0.517593	0.878683	0.131642
	C143	C	0.499875	0.877888	0.889706
	C144	C	0.382306	0.888889	0.694468
	C145	C	0.633011	0.110807	0.694455
	C146	C	0.632186	0.887722	0.329435
	C147	C	0.382416	0.110020	0.328945
	C148	C	0.692190	0.376035	0.900224
	C149	C	0.692068	0.622941	0.121700
	C150	C	0.329363	0.620393	0.900960
	C151	C	0.327754	0.373065	0.120809
	C152	C	0.896237	0.678057	0.389826
	C153	C	0.121502	0.680297	0.634010
	C154	C	0.896907	0.318853	0.635516
	C155	C	0.121059	0.317446	0.389601
	C156	C	0.898403	0.374626	0.694385
	C157	C	0.121995	0.623606	0.692142
	C158	C	0.898424	0.623504	0.329517
	C159	C	0.120097	0.372055	0.329681
	C160	C	0.387230	0.678871	0.901083
	C161	C	0.634100	0.681182	0.121395
	C162	C	0.635220	0.316445	0.901057
	C163	C	0.387144	0.316987	0.121624
	C164	C	0.686564	0.886201	0.390345
	C165	C	0.687113	0.112295	0.633810
	C166	C	0.328334	0.887060	0.633758
	C167	C	0.327514	0.111082	0.389138
	C168	C	0.883978	0.388537	0.194527
	C169	C	0.135419	0.609215	0.194386
	C170	C	0.136990	0.387030	0.827832
	C171	C	0.887997	0.611050	0.830691
	C172	C	0.190266	0.873744	0.402110
	C173	C	0.189917	0.122503	0.622525
	C174	C	0.827256	0.121397	0.400962
	C175	C	0.825963	0.876854	0.623606
	C176	C	0.397001	0.180048	0.889728
	C177	C	0.622246	0.177894	0.132729
	C178	C	0.396538	0.818855	0.132285
	C179	C	0.621080	0.818404	0.887305
	C180	C	0.396896	0.874707	0.191469
	C181	C	0.620266	0.123467	0.192830
	C182	C	0.396751	0.123929	0.831270
	C183	C	0.619452	0.874068	0.828230
	C184	C	0.884763	0.179873	0.401327
	C185	C	0.131005	0.179931	0.622534
	C186	C	0.130234	0.817747	0.401289
	C187	C	0.883753	0.817915	0.623543
	C188	C	0.191127	0.385094	0.888836
	C189	C	0.189675	0.610567	0.133294
	C190	C	0.829573	0.387131	0.133528
	C191	C	0.831786	0.612000	0.889360
	C192	C	0.413412	0.091823	0.608770
	C193	C	0.601304	0.907718	0.608510
	C194	C	0.602322	0.091597	0.414093
	C195	C	0.413479	0.906247	0.413335
	C196	C	0.608425	0.401583	0.102427
	C197	C	0.607913	0.596015	0.920176
	C198	C	0.413457	0.595407	0.102642
	C199	C	0.414834	0.401760	0.920530
	C200	C	0.101648	0.593653	0.416369
	C201	C	0.916934	0.593653	0.609452
	C202	C	0.101830	0.403342	0.607074
	C203	C	0.916150	0.403514	0.414827
	C204	C	0.916412	0.590839	0.108572
	C205	C	0.104683	0.405889	0.108397
	C206	C	0.106653	0.590518	0.913619
	C207	C	0.916664	0.406948	0.914377
	C208	C	0.104416	0.902431	0.602916
	C209	C	0.104949	0.094285	0.421441
	C210	C	0.909719	0.096277	0.603185
	C211	C	0.908698	0.899905	0.420749
	C212	C	0.601683	0.092668	0.914670
	C213	C	0.416123	0.094751	0.107842
	C214	C	0.602057	0.904208	0.107733
	C215	C	0.416030	0.903565	0.915298
	Zn216	Zn	0.507789	-0.000390	0.761997
	Zn217	Zn	0.508156	-0.000786	0.260214
	Zn218	Zn	0.762246	0.499632	0.010687
	Zn219	Zn	0.259347	0.497159	0.011831
	Zn220	Zn	0.007976	0.747257	0.512272
	Zn221	Zn	0.008087	0.250067	0.511821
	Zn222	Zn	0.010882	0.498405	0.760922
	Zn223	Zn	0.010447	0.498656	0.262546
	Zn224	Zn	0.509877	0.750292	0.011187
	Zn225	Zn	0.510402	0.247084	0.011492
	Zn226	Zn	0.755594	-0.000447	0.511779
	Zn227	Zn	0.259893	-0.001563	0.512062
	N228	N	0.418351	0.965193	0.694408
	N229	N	0.596596	0.034591	0.694123
	N230	N	0.596717	0.964295	0.328988
	N231	N	0.418609	0.033581	0.328738
	N232	N	0.691265	0.412622	0.975007
	N233	N	0.691585	0.586477	0.046868
	N234	N	0.329781	0.584559	0.975948
	N235	N	0.328886	0.409348	0.046087
	N236	N	0.971485	0.675451	0.427541
	N237	N	0.045355	0.677927	0.598215
	N238	N	0.972236	0.320929	0.597776
	N239	N	0.045204	0.320428	0.426464
	N240	N	0.974794	0.410516	0.692836
	N241	N	0.045968	0.586746	0.691993
	N242	N	0.974947	0.587343	0.330430
	N243	N	0.043742	0.408341	0.329713
	N244	N	0.423255	0.678642	0.976045
	N245	N	0.598259	0.680340	0.046369
	N246	N	0.599592	0.316526	0.976295
	N247	N	0.424891	0.319153	0.047331
	N248	N	0.684158	0.961732	0.427120
	N249	N	0.684053	0.036917	0.596382
	N250	N	0.331681	0.962169	0.596257
	N251	N	0.330373	0.035583	0.426155
	N252	N	0.920787	0.464465	0.194235
	N253	N	0.099995	0.532588	0.194714
	N254	N	0.101404	0.463705	0.827598
	N255	N	0.923892	0.534514	0.830829
	N256	N	0.190118	0.909872	0.477231
	N257	N	0.189437	0.085939	0.547736
	N258	N	0.827420	0.085496	0.476001
	N259	N	0.825971	0.911863	0.548237
	N260	N	0.473240	0.177420	0.925638
	N261	N	0.546528	0.175630	0.095831
	N262	N	0.472612	0.821183	0.095941
	N263	N	0.545627	0.820669	0.924777
	N264	N	0.473124	0.911330	0.191032
	N265	N	0.543265	0.088716	0.193082
	N266	N	0.472891	0.087015	0.831688
	N267	N	0.543113	0.910560	0.829682
	N268	N	0.920282	0.179605	0.476482
	N269	N	0.094696	0.178636	0.547623
	N270	N	0.093387	0.819382	0.475847
	N271	N	0.918878	0.816975	0.547888
	N272	N	0.188487	0.460483	0.926090
	N273	N	0.187186	0.535019	0.096223
	N274	N	0.833012	0.462192	0.095990
	N275	N	0.833365	0.536088	0.925485
	O276	O	0.486952	0.355443	0.469290
	H277	H	0.494043	0.362497	0.463885
	H278	H	0.496055	0.369765	0.460035
	O279	O	0.583234	0.296529	0.303244
	H280	H	0.587796	0.280217	0.302732
	H281	H	0.605559	0.316076	0.297577
	O282	O	0.725918	0.349589	0.442159
	H283	H	0.762607	0.324824	0.433975
	H284	H	0.719005	0.367238	0.441418
	O285	O	1.023699	0.934375	0.088690
	H286	H	1.030977	0.934767	0.087338
	H287	H	1.014548	0.937710	0.087897
	O288	O	0.435294	0.520971	0.701697
	H289	H	0.424178	0.528853	0.690316
	H290	H	0.427279	0.520699	0.690140
	O291	O	0.721801	0.653527	0.507188
	H292	H	0.714638	0.646668	0.542180
	H293	H	0.746968	0.676243	0.522658
	O294	O	0.827663	0.947202	1.208977
	H295	H	0.824659	0.946251	1.195030
	H296	H	0.830503	0.950319	1.225193
	O297	O	0.391277	0.609028	0.519945
	H298	H	0.406286	0.614233	0.540864
	H299	H	0.385798	0.613554	0.525276
	O300	O	0.525098	0.314064	0.608498
	H301	H	0.537171	0.316322	0.613259
	H302	H	0.533989	0.302032	0.621673
	O303	O	-0.123573	0.070323	1.075240
	H304	H	-0.119551	0.076905	1.080922
	H305	H	-0.129198	0.076878	1.076430
	O306	O	0.298619	0.574606	0.576239
	H307	H	0.282019	0.586958	0.556915
	H308	H	0.304927	0.572847	0.562533
	O309	O	0.825741	-0.000710	0.105705
	H310	H	0.834860	-0.010694	0.084467
	H311	H	0.823120	0.008641	0.116138
	O312	O	0.436234	0.708874	0.443510
	H313	H	0.463752	0.718115	0.428388
	H314	H	0.434670	0.701771	0.431557
	O315	O	0.846153	0.966586	0.966683
	H316	H	0.852089	0.947874	0.969618
	H317	H	0.855918	0.978388	0.962536
	O318	O	0.181194	0.162279	0.184023
	H319	H	0.187705	0.152025	0.164326
	H320	H	0.143916	0.173226	0.198494
	O321	O	0.620548	0.509146	0.700786
	H322	H	0.618587	0.520134	0.708111
	H323	H	0.596711	0.503236	0.693021
	O324	O	1.074727	0.115336	0.973169
	H325	H	1.067350	0.118898	0.947930
	H326	H	1.089066	0.114552	0.971476
	O327	O	0.693194	0.309166	0.371607
	H328	H	0.699142	0.351580	0.369029
	H329	H	0.691701	0.298272	0.385833
	O330	O	-0.043719	1.167234	1.014632
	H331	H	-0.054058	1.171875	1.013295
	H332	H	-0.030050	1.172518	1.003325
	O333	O	-0.619029	0.658028	-0.379916
	H334	H	-0.601831	0.667042	-0.373580
	H335	H	-0.620309	0.654069	-0.384170
	O336	O	1.048347	0.850852	-0.062681
	H337	H	1.054633	0.848615	-0.060484
	H338	H	1.056970	0.840230	-0.057381
	O339	O	-0.136473	1.019921	0.881772
	H340	H	-0.151973	1.015301	0.906362
	H341	H	-0.125085	1.026219	0.867721
	O342	O	0.355098	0.502166	0.369120
	H343	H	0.329694	0.502046	0.346016
	H344	H	0.356456	0.528706	0.381204
	O345	O	-0.022362	0.194945	0.901017
	H346	H	-0.000753	0.199589	0.902875
	H347	H	-0.019859	0.175280	0.909354
	O348	O	0.324411	0.627118	0.321682
	H349	H	0.333226	0.635386	0.321676
	H350	H	0.332092	0.643415	0.338817
	O351	O	0.990789	0.928704	-0.164673
	H352	H	0.981808	0.918237	-0.172762
	H353	H	1.001088	0.934535	-0.158849
	O354	O	0.938763	0.957042	0.813523
	H355	H	0.925832	0.958411	0.813714
	H356	H	0.946268	0.945517	0.816333
	O357	O	0.162175	-0.022413	-0.144947
	H358	H	0.162859	-0.027347	-0.139765
	H359	H	0.160448	-0.027575	-0.148542
	O360	O	0.591334	0.571854	0.332993
	H361	H	0.581788	0.537685	0.336112
	H362	H	0.581493	0.569249	0.354989
	O363	O	0.709876	-0.311353	-0.362039
	H364	H	0.708561	-0.330714	-0.329713
	H365	H	0.713683	-0.294926	-0.356401
	O366	O	-0.142873	-0.196037	1.111934
	H367	H	-0.115291	-0.203003	1.121001
	H368	H	-0.157005	-0.177154	1.131476
	O369	O	1.166494	-0.031518	1.002486
	H370	H	1.168808	-0.049634	0.988628
	H371	H	1.164346	-0.030993	0.991778
	O372	O	0.372156	0.456402	0.680329
	H373	H	0.369090	0.443402	0.674382
	H374	H	0.365956	0.449289	0.681075
	O375	O	-0.492179	-0.644154	0.548591
	H376	H	-0.498316	-0.639164	0.549079
	H377	H	-0.496395	-0.641099	0.544551
	O378	O	0.313845	0.354749	0.540477
	H379	H	0.316548	0.373539	0.530777
	H380	H	0.307091	0.350426	0.532528
	O381	O	-0.134078	1.207532	0.053801
	H382	H	-0.134589	1.215905	0.030305
	H383	H	-0.151770	1.222362	0.049098
	O384	O	0.447183	0.409510	0.572547
	H385	H	0.445957	0.394221	0.552102
	H386	H	0.450777	0.400790	0.563553
	O387	O	0.215949	-0.003420	0.220604
	H388	H	0.240387	0.010724	0.240100
	H389	H	0.209853	0.012860	0.207127
	O390	O	1.016121	1.126608	0.223097
	H391	H	1.009465	1.152398	0.230197
	H392	H	1.002092	1.136222	0.206918
	O393	O	1.150835	-0.035477	1.024946
	H394	H	1.139126	-0.032993	1.022567
	H395	H	1.155851	-0.033071	1.031526
	O396	O	0.620563	0.584962	0.587267
	H397	H	0.629252	0.570360	0.580731
	H398	H	0.628781	0.569833	0.593962
	O399	O	0.121216	0.802743	-0.008856
	H400	H	0.120344	0.807152	-0.007592
	H401	H	0.110789	0.801206	-0.009211
	O402	O	1.446411	1.481958	-0.347120
	H403	H	1.436053	1.485486	-0.347322
	H404	H	1.430011	1.481860	-0.359603
	O405	O	0.645118	0.607395	0.508886
	H406	H	0.630063	0.592695	0.512753
	H407	H	0.646648	0.598263	0.523532
	O408	O	0.458494	0.501570	0.556162
	H409	H	0.459902	0.506795	0.553814
	H410	H	0.448585	0.485646	0.562566
	O411	O	0.824610	0.810231	0.996558
	H412	H	0.808503	0.790339	1.001627
	H413	H	0.824658	0.812095	1.036339
	O414	O	0.452416	0.303263	0.610055
	H415	H	0.438624	0.320714	0.615337
	H416	H	0.443902	0.290708	0.610466
	O417	O	0.087237	1.093785	0.930957
	H418	H	0.083587	1.070131	0.935544
	H419	H	0.091243	1.088833	0.933216
	O420	O	0.057974	0.995336	1.115492
	H421	H	0.057101	0.993966	1.108252
	H422	H	0.069117	1.006161	1.098078
	O423	O	0.043977	1.163114	-0.126883
	H424	H	0.042908	1.171355	-0.138526
	H425	H	0.056276	1.139105	-0.135035
	O426	O	-0.007763	-0.132453	1.159685
	H427	H	0.000373	-0.118947	1.163891
	H428	H	-0.022563	-0.138407	1.179284
	O429	O	0.484712	0.419791	0.302770
	H430	H	0.477306	0.420919	0.306794
	H431	H	0.487113	0.399336	0.294395
	O432	O	0.709764	0.491932	0.340456
	H433	H	0.714974	0.498120	0.324763
	H434	H	0.706853	0.521274	0.363688
	O435	O	-0.436705	0.600998	-0.390171
	H436	H	-0.443077	0.591628	-0.402813
	H437	H	-0.420146	0.601214	-0.404779
	O438	O	0.200045	0.858714	0.837980
	H439	H	0.212513	0.845433	0.841327
	H440	H	0.200910	0.865543	0.856146
	O441	O	0.487486	0.683746	0.308626
	H442	H	0.494466	0.693814	0.293559
	H443	H	0.512948	0.656385	0.314462
