data_Molecule from HDF5

_cell_length_a		16.312045
_cell_length_b		16.016686
_cell_length_c		16.522110
_cell_angle_alpha	89.494059
_cell_angle_beta	89.948981
_cell_angle_gamma	89.864908
_symmetry_space_group_name_H-M	'P 1'
_symmetry_Int_Tables_number		1

loop_
	_symmetry_equiv_pos_as_xyz
	x,y,z

loop_
	_atom_site_label
	_atom_site_type_symbol
	_atom_site_fract_x
	_atom_site_fract_y
	_atom_site_fract_z
	H0	H	0.392051	0.827237	0.723881
	H1	H	0.600519	0.152496	0.720032
	H2	H	0.597754	0.825220	0.288282
	H3	H	0.391302	0.153328	0.282997
	H4	H	0.719104	0.388178	0.843203
	H5	H	0.719618	0.596792	0.160961
	H6	H	0.278120	0.598180	0.843075
	H7	H	0.277018	0.385480	0.162051
	H8	H	0.835374	0.703781	0.404435
	H9	H	0.162755	0.703015	0.596648
	H10	H	0.834594	0.277166	0.599509
	H11	H	0.161962	0.274804	0.403912
	H12	H	0.839296	0.384276	0.723995
	H13	H	0.159370	0.597065	0.720468
	H14	H	0.839001	0.598516	0.279765
	H15	H	0.159384	0.383623	0.280557
	H16	H	0.397406	0.710788	0.842561
	H17	H	0.593531	0.702847	0.165192
	H18	H	0.598219	0.275319	0.841429
	H19	H	0.399395	0.273862	0.164043
	H20	H	0.711036	0.824688	0.405486
	H21	H	0.712428	0.154138	0.602365
	H22	H	0.283047	0.824736	0.603838
	H23	H	0.281394	0.154493	0.402036
	H24	H	0.894383	0.328285	0.222565
	H25	H	0.103949	0.654709	0.218185
	H26	H	0.104142	0.327936	0.784762
	H27	H	0.895937	0.655086	0.781853
	H28	H	0.221127	0.883615	0.344694
	H29	H	0.217722	0.095615	0.660120
	H30	H	0.778475	0.093060	0.342978
	H31	H	0.777557	0.882993	0.662751
	H32	H	0.334212	0.207619	0.904283
	H33	H	0.661167	0.201768	0.098910
	H34	H	0.332866	0.775339	0.101042
	H35	H	0.660199	0.776988	0.906887
	H36	H	0.335444	0.882763	0.224762
	H37	H	0.656599	0.095361	0.224066
	H38	H	0.337177	0.099414	0.780817
	H39	H	0.656245	0.882638	0.782088
	H40	H	0.897270	0.208947	0.342474
	H41	H	0.097815	0.205392	0.662083
	H42	H	0.097199	0.775996	0.339825
	H43	H	0.900155	0.771037	0.663387
	H44	H	0.214776	0.327591	0.901957
	H45	H	0.213058	0.656088	0.099429
	H46	H	0.783142	0.326451	0.103716
	H47	H	0.783751	0.657340	0.900593
	H48	H	0.403664	0.107835	0.590237
	H49	H	0.583935	0.872433	0.594246
	H50	H	0.584237	0.108518	0.407611
	H51	H	0.409931	0.875662	0.421704
	H52	H	0.589721	0.405361	0.113304
	H53	H	0.593436	0.583585	0.887585
	H54	H	0.401801	0.575908	0.115609
	H55	H	0.410488	0.403179	0.892299
	H56	H	0.114517	0.575880	0.403100
	H57	H	0.881809	0.580262	0.597307
	H58	H	0.113023	0.397649	0.589386
	H59	H	0.883751	0.403941	0.407205
	H60	H	0.113283	0.406122	0.596875
	H61	H	0.884158	0.580739	0.589678
	H62	H	0.117600	0.585890	0.404454
	H63	H	0.883555	0.400694	0.411363
	H64	H	0.408326	0.581555	0.115392
	H65	H	0.590190	0.580598	0.889929
	H66	H	0.586397	0.394633	0.115373
	H67	H	0.405110	0.396684	0.886579
	H68	H	0.583031	0.105924	0.414569
	H69	H	0.587157	0.872141	0.593116
	H70	H	0.407594	0.108657	0.596292
	H71	H	0.400648	0.869013	0.411530
	H72	H	0.911728	0.607615	0.091453
	H73	H	0.079147	0.378294	0.089831
	H74	H	0.084375	0.606927	0.912498
	H75	H	0.907127	0.373382	0.911490
	H76	H	0.088032	0.893020	0.616243
	H77	H	0.096082	0.079968	0.386529
	H78	H	0.897742	0.081629	0.618885
	H79	H	0.907728	0.897887	0.389924
	H80	H	0.609979	0.076961	0.912447
	H81	H	0.381875	0.077823	0.095521
	H82	H	0.612940	0.901627	0.102601
	H83	H	0.384098	0.913229	0.909695
	H84	H	0.613149	0.894844	0.097695
	H85	H	0.380112	0.081028	0.096678
	H86	H	0.613757	0.078576	0.903853
	H87	H	0.377257	0.897321	0.905342
	H88	H	0.903739	0.073549	0.614240
	H89	H	0.085706	0.074143	0.391150
	H90	H	0.094284	0.897711	0.616923
	H91	H	0.899518	0.895194	0.386395
	H92	H	0.093431	0.610741	0.909858
	H93	H	0.092446	0.373546	0.086579
	H94	H	0.908102	0.607242	0.088878
	H95	H	0.911078	0.374002	0.910589
	H96	H	0.410854	0.105437	0.589969
	H97	H	0.585985	0.871502	0.597124
	H98	H	0.589824	0.108108	0.411268
	H99	H	0.415446	0.873190	0.407883
	H100	H	0.597461	0.397386	0.118399
	H101	H	0.588716	0.585151	0.888810
	H102	H	0.400647	0.583953	0.118975
	H103	H	0.401546	0.405979	0.889097
	H104	H	0.113588	0.580759	0.412135
	H105	H	0.885510	0.573585	0.593270
	H106	H	0.117390	0.395475	0.599680
	H107	H	0.886015	0.405299	0.411792
	H108	H	0.908177	0.610097	0.092627
	H109	H	0.087759	0.371948	0.099982
	H110	H	0.086251	0.610560	0.902872
	H111	H	0.909537	0.375121	0.914070
	H112	H	0.087643	0.900758	0.614266
	H113	H	0.085220	0.085958	0.387409
	H114	H	0.908598	0.083577	0.616640
	H115	H	0.901346	0.903275	0.389249
	H116	H	0.613650	0.085370	0.910125
	H117	H	0.382942	0.080501	0.092876
	H118	H	0.609586	0.902082	0.094676
	H119	H	0.384242	0.899814	0.920819
	C120	C	0.376038	-0.000743	0.624097
	C121	C	0.616842	0.980514	0.624018
	C122	C	0.616580	-0.001422	0.382153
	C123	C	0.376312	0.980825	0.382242
	C124	C	0.621227	0.368801	0.010685
	C125	C	0.620296	0.613018	0.994323
	C126	C	0.374181	0.613150	0.010853
	C127	C	0.375114	0.369562	0.994613
	C128	C	0.008013	0.612664	0.377799
	C129	C	0.990707	0.610127	0.622390
	C130	C	0.007471	0.368455	0.624948
	C131	C	0.990966	0.370611	0.380445
	C132	C	0.877981	0.499965	0.122777
	C133	C	0.117897	0.482783	0.121432
	C134	C	0.119387	0.500499	0.879953
	C135	C	0.878162	0.482813	0.880535
	C136	C	0.120139	0.867569	0.510248
	C137	C	0.119156	0.111023	0.493605
	C138	C	0.873683	0.112089	0.511207
	C139	C	0.874083	0.866666	0.494236
	C140	C	0.505709	0.112444	0.879653
	C141	C	0.488557	0.110589	0.124221
	C142	C	0.504638	0.868315	0.126520
	C143	C	0.488317	0.871058	0.882288
	C144	C	0.374257	0.876191	0.683826
	C145	C	0.618116	0.104016	0.680585
	C146	C	0.616996	0.874494	0.326333
	C147	C	0.373391	0.104085	0.322760
	C148	C	0.679419	0.369041	0.890678
	C149	C	0.678762	0.613778	0.113961
	C150	C	0.317592	0.615559	0.890751
	C151	C	0.316913	0.367550	0.114559
	C152	C	0.884956	0.668067	0.381719
	C153	C	0.113356	0.665969	0.618301
	C154	C	0.884535	0.313304	0.621567
	C155	C	0.113039	0.312671	0.382784
	C156	C	0.886801	0.366457	0.683689
	C157	C	0.111866	0.613049	0.679908
	C158	C	0.886855	0.615507	0.319800
	C159	C	0.111702	0.367126	0.321450
	C160	C	0.376403	0.672478	0.890751
	C161	C	0.616011	0.667044	0.116041
	C162	C	0.618992	0.313076	0.889760
	C163	C	0.377718	0.311926	0.115619
	C164	C	0.673285	0.874258	0.384460
	C165	C	0.673628	0.104865	0.621964
	C166	C	0.319872	0.874902	0.624181
	C167	C	0.318719	0.104804	0.381924
	C168	C	0.876470	0.377035	0.182440
	C169	C	0.121115	0.605908	0.178708
	C170	C	0.121579	0.377043	0.823393
	C171	C	0.877233	0.606173	0.821603
	C172	C	0.179985	0.866228	0.391155
	C173	C	0.177816	0.112888	0.612855
	C174	C	0.817003	0.112693	0.390926
	C175	C	0.817304	0.864884	0.614914
	C176	C	0.383386	0.170008	0.882730
	C177	C	0.611731	0.165617	0.120982
	C178	C	0.382142	0.812232	0.123068
	C179	C	0.611006	0.814290	0.885249
	C180	C	0.383341	0.866234	0.184291
	C181	C	0.609157	0.112380	0.183024
	C182	C	0.384876	0.116122	0.821282
	C183	C	0.608900	0.866881	0.823038
	C184	C	0.876153	0.170276	0.390575
	C185	C	0.118012	0.167805	0.613897
	C186	C	0.118055	0.812673	0.388879
	C187	C	0.877933	0.808839	0.615096
	C188	C	0.176726	0.376865	0.881730
	C189	C	0.175586	0.606461	0.119686
	C190	C	0.821015	0.375985	0.123421
	C191	C	0.821216	0.607158	0.880579
	C192	C	0.400312	0.084998	0.599453
	C193	C	0.592896	0.894439	0.601452
	C194	C	0.592729	0.084840	0.404569
	C195	C	0.401239	0.894857	0.406628
	C196	C	0.598008	0.392254	0.094006
	C197	C	0.597515	0.589870	0.910610
	C198	C	0.396957	0.587878	0.094794
	C199	C	0.398911	0.394447	0.911040
	C200	C	0.093183	0.588061	0.400075
	C201	C	0.905831	0.585312	0.600097
	C202	C	0.092314	0.392474	0.602059
	C203	C	0.906325	0.395889	0.403493
	C204	C	0.902130	0.585858	0.098164
	C205	C	0.093327	0.396794	0.098803
	C206	C	0.095204	0.587011	0.902117
	C207	C	0.902267	0.396668	0.904905
	C208	C	0.096756	0.890403	0.594012
	C209	C	0.095665	0.087101	0.410145
	C210	C	0.896582	0.086798	0.594865
	C211	C	0.896268	0.891663	0.410342
	C212	C	0.590473	0.087571	0.902280
	C213	C	0.403565	0.086777	0.101445
	C214	C	0.589828	0.892375	0.104673
	C215	C	0.403954	0.896188	0.905331
	Zn216	Zn	0.496616	-0.009551	0.751919
	Zn217	Zn	0.496129	-0.009877	0.254535
	Zn218	Zn	0.750655	0.491396	0.002017
	Zn219	Zn	0.245254	0.491259	0.001808
	Zn220	Zn	-0.001294	0.738317	0.501464
	Zn221	Zn	-0.001347	0.240547	0.502205
	Zn222	Zn	-0.000275	0.490774	0.752546
	Zn223	Zn	-0.000812	0.491186	0.249809
	Zn224	Zn	0.496812	0.741589	0.003544
	Zn225	Zn	0.497702	0.239633	0.002737
	Zn226	Zn	0.744198	-0.010650	0.503327
	Zn227	Zn	0.249107	-0.010029	0.502715
	N228	N	0.408458	0.954566	0.683934
	N229	N	0.583758	0.025743	0.681930
	N230	N	0.582508	0.952759	0.324887
	N231	N	0.408309	0.025972	0.322729
	N232	N	0.681014	0.402952	0.966798
	N233	N	0.681664	0.581003	0.037281
	N234	N	0.316209	0.579533	0.966558
	N235	N	0.315137	0.402635	0.038262
	N236	N	0.961384	0.666538	0.416869
	N237	N	0.037045	0.664085	0.583031
	N238	N	0.960744	0.314182	0.585903
	N239	N	0.036910	0.314620	0.418757
	N240	N	0.964288	0.399817	0.686007
	N241	N	0.034626	0.578773	0.682464
	N242	N	0.964545	0.582080	0.317018
	N243	N	0.034771	0.402265	0.319866
	N244	N	0.411142	0.670861	0.966445
	N245	N	0.580333	0.666762	0.040768
	N246	N	0.583466	0.312724	0.965206
	N247	N	0.413224	0.313004	0.040141
	N248	N	0.673076	0.952342	0.418460
	N249	N	0.673143	0.026939	0.587642
	N250	N	0.320763	0.952502	0.587637
	N251	N	0.320369	0.027131	0.418188
	N252	N	0.911168	0.455129	0.182081
	N253	N	0.085857	0.528079	0.179814
	N254	N	0.086497	0.455132	0.822252
	N255	N	0.911655	0.527780	0.821225
	N256	N	0.181493	0.899730	0.467540
	N257	N	0.178619	0.078101	0.537113
	N258	N	0.815319	0.077351	0.467095
	N259	N	0.814648	0.900021	0.538773
	N260	N	0.459583	0.168105	0.918102
	N261	N	0.535608	0.164673	0.085121
	N262	N	0.458447	0.813516	0.087878
	N263	N	0.535150	0.816489	0.921390
	N264	N	0.460636	0.900563	0.186413
	N265	N	0.531678	0.078894	0.185080
	N266	N	0.462057	0.081316	0.819142
	N267	N	0.531546	0.901533	0.821076
	N268	N	0.910541	0.170164	0.466381
	N269	N	0.082152	0.166860	0.538705
	N270	N	0.081679	0.813177	0.463960
	N271	N	0.912511	0.809761	0.539136
	N272	N	0.175684	0.454676	0.916032
	N273	N	0.173603	0.528846	0.084606
	N274	N	0.821536	0.453530	0.087257
	N275	N	0.821668	0.529323	0.916458
	O276	O	0.503178	0.349681	0.520413
	H277	H	0.512819	0.361200	0.518381
	H278	H	0.492369	0.348321	0.523537
	O279	O	0.488405	0.602862	0.527554
	H280	H	0.490796	0.597823	0.519236
	H281	H	0.484505	0.601243	0.513158
	O282	O	0.895466	0.087256	1.091514
	H283	H	0.897446	0.065943	1.092994
	H284	H	0.907780	0.085951	1.111715
	O285	O	0.686359	0.407663	0.387756
	H286	H	0.678360	0.401494	0.411136
	H287	H	0.710808	0.391330	0.384281
	O288	O	0.881562	1.035739	1.092508
	H289	H	0.883288	1.042816	1.107536
	H290	H	0.892969	1.034604	1.088933
	O291	O	0.150295	1.131429	0.082985
	H292	H	0.154217	1.140464	0.053450
	H293	H	0.154548	1.113921	0.083012
	O294	O	0.442985	0.514738	0.367863
	H295	H	0.448166	0.507579	0.360892
	H296	H	0.441109	0.517544	0.372142
	O297	O	0.429534	0.495072	0.389445
	H298	H	0.428612	0.499337	0.376043
	H299	H	0.440882	0.499919	0.389838
	O300	O	0.459943	0.545980	0.603299
	H301	H	0.439100	0.546668	0.605502
	H302	H	0.463117	0.547789	0.598574
	O303	O	0.452545	0.533826	0.497918
	H304	H	0.451090	0.540367	0.484117
	H305	H	0.446246	0.532764	0.495442
	O306	O	0.675225	0.546954	0.677467
	H307	H	0.668416	0.568263	0.666868
	H308	H	0.685317	0.555090	0.687871
	O309	O	0.576484	0.550626	0.464998
	H310	H	0.565052	0.550867	0.467602
	H311	H	0.595796	0.551762	0.463067
	O312	O	-0.124377	-0.074147	0.159440
	H313	H	-0.107880	-0.065891	0.165343
	H314	H	-0.124478	-0.078526	0.152760
	O315	O	0.522564	0.534458	0.448193
	H316	H	0.515599	0.530873	0.452858
	H317	H	0.529931	0.531283	0.450248
	O318	O	0.152885	0.990353	0.811652
	H319	H	0.149705	0.976614	0.810558
	H320	H	0.160390	0.978528	0.798441
	O321	O	0.546750	0.439646	0.655869
	H322	H	0.548668	0.445550	0.665928
	H323	H	0.554725	0.435834	0.650066
	O324	O	0.063137	1.049388	0.009263
	H325	H	0.059888	1.041417	-0.004506
	H326	H	0.061545	1.059034	-0.003975
	O327	O	0.328484	0.457831	0.512731
	H328	H	0.330763	0.451459	0.510972
	H329	H	0.325503	0.450227	0.509252
	O330	O	0.132023	0.003658	1.037068
	H331	H	0.124779	0.011915	1.047741
	H332	H	0.140675	0.001134	1.025803
	O333	O	0.169177	-0.102511	0.985382
	H334	H	0.166333	-0.098674	0.988547
	H335	H	0.167568	-0.120000	0.993483
	O336	O	0.441461	0.631369	0.481338
	H337	H	0.448786	0.630409	0.486637
	H338	H	0.430723	0.638808	0.475978
	O339	O	1.006198	0.090323	-0.133327
	H340	H	0.991749	0.083782	-0.132647
	H341	H	1.010858	0.098600	-0.148715
	O342	O	-0.131341	-0.073957	-0.002862
	H343	H	-0.123402	-0.066402	0.008300
	H344	H	-0.143821	-0.068026	0.005381
	O345	O	0.916837	-0.106735	1.189176
	H346	H	0.918359	-0.119461	1.201852
	H347	H	0.932062	-0.096778	1.179185
	O348	O	0.971982	1.082178	0.130428
	H349	H	0.994518	1.069903	0.137470
	H350	H	0.979725	1.074627	0.115567
	O351	O	0.480402	0.429433	0.433790
	H352	H	0.494381	0.411937	0.434892
	H353	H	0.486954	0.422006	0.439065
	O354	O	0.860621	0.161015	0.887961
	H355	H	0.869748	0.170961	0.881778
	H356	H	0.844504	0.171355	0.896229
	O357	O	0.403800	0.421904	0.647512
	H358	H	0.414198	0.423291	0.655194
	H359	H	0.409615	0.420181	0.656598
	O360	O	0.572574	0.439052	0.593966
	H361	H	0.569899	0.438269	0.583425
	H362	H	0.576444	0.447627	0.598639
	O363	O	0.107693	0.907674	0.848214
	H364	H	0.109857	0.902725	0.832404
	H365	H	0.104400	0.914252	0.840093
	O366	O	0.640805	0.559465	0.528235
	H367	H	0.629901	0.551847	0.520821
	H368	H	0.647173	0.564990	0.518858
	O369	O	-0.020924	1.035416	-0.153817
	H370	H	-0.026391	1.044829	-0.163541
	H371	H	-0.024644	1.041481	-0.136601
	O372	O	0.619764	0.541317	0.536783
	H373	H	0.606727	0.532697	0.532844
	H374	H	0.607635	0.545698	0.551320
	O375	O	0.623219	0.304104	0.378224
	H376	H	0.633522	0.300893	0.390230
	H377	H	0.635934	0.291089	0.369643
	O378	O	0.965121	0.867517	0.070811
	H379	H	0.970673	0.866359	0.068208
	H380	H	0.946171	0.872576	0.081443
	O381	O	0.811274	0.024181	-0.163910
	H382	H	0.803045	0.022445	-0.155632
	H383	H	0.807811	0.029019	-0.167332
	O384	O	0.937495	1.120966	0.011122
	H385	H	0.945702	1.126933	0.019156
	H386	H	0.935579	1.123829	0.010055
	O387	O	-0.002333	-0.044368	0.068103
	H388	H	0.007413	-0.047234	0.067949
	H389	H	-0.007743	-0.045167	0.061127
	O390	O	-0.063021	0.831433	0.045463
	H391	H	-0.066006	0.840561	0.054012
	H392	H	-0.066610	0.826140	0.053245
	O393	O	1.038398	0.956805	1.033580
	H394	H	1.030185	0.957374	1.034558
	H395	H	1.035555	0.962332	1.039871
	O396	O	0.327218	0.476685	0.584553
	H397	H	0.328273	0.480567	0.571694
	H398	H	0.321640	0.454511	0.592027
	O399	O	0.135210	1.061168	0.955194
	H400	H	0.119949	1.050974	0.951894
	H401	H	0.140652	1.050256	0.945885
	O402	O	0.658045	0.396706	0.419715
	H403	H	0.647939	0.390142	0.438887
	H404	H	0.653064	0.404523	0.420641
	O405	O	1.044207	0.962214	0.185316
	H406	H	1.040025	0.976083	0.175525
	H407	H	1.051349	0.966551	0.200446
	O408	O	1.055431	0.810161	0.011985
	H409	H	1.048702	0.806451	0.014906
	H410	H	1.046711	0.812785	0.018055
	O411	O	0.849568	0.087258	0.830424
	H412	H	0.836206	0.086547	0.818060
	H413	H	0.834340	0.085149	0.838370
	O414	O	0.446677	0.422633	0.509396
	H415	H	0.430500	0.439321	0.505795
	H416	H	0.453636	0.412977	0.517353
	O417	O	0.387146	0.503079	0.526867
	H418	H	0.376841	0.509003	0.526939
	H419	H	0.385460	0.503928	0.526952
