data_Molecule from HDF5

_cell_length_a		15.979779
_cell_length_b		16.179915
_cell_length_c		16.390357
_cell_angle_alpha	90.087040
_cell_angle_beta	89.671833
_cell_angle_gamma	90.580117
_symmetry_space_group_name_H-M	'P 1'
_symmetry_Int_Tables_number		1

loop_
	_symmetry_equiv_pos_as_xyz
	x,y,z

loop_
	_atom_site_label
	_atom_site_type_symbol
	_atom_site_fract_x
	_atom_site_fract_y
	_atom_site_fract_z
	H0	H	0.388064	0.836367	0.710483
	H1	H	0.599913	0.161346	0.711543
	H2	H	0.594653	0.836017	0.276748
	H3	H	0.392171	0.161781	0.275116
	H4	H	0.706363	0.402936	0.829325
	H5	H	0.708891	0.598624	0.156588
	H6	H	0.286491	0.591687	0.828081
	H7	H	0.275559	0.399262	0.154707
	H8	H	0.827151	0.710887	0.398347
	H9	H	0.161289	0.715941	0.589436
	H10	H	0.829046	0.288749	0.590547
	H11	H	0.162292	0.292228	0.393722
	H12	H	0.829702	0.400083	0.706083
	H13	H	0.161013	0.605059	0.706425
	H14	H	0.829302	0.602484	0.277654
	H15	H	0.159659	0.401279	0.275054
	H16	H	0.394265	0.715800	0.832218
	H17	H	0.593396	0.716043	0.157156
	H18	H	0.595542	0.282018	0.832283
	H19	H	0.390024	0.281586	0.155209
	H20	H	0.704831	0.834438	0.397676
	H21	H	0.706276	0.165401	0.588888
	H22	H	0.277677	0.836663	0.590424
	H23	H	0.289537	0.167766	0.400531
	H24	H	0.887182	0.337661	0.211306
	H25	H	0.099969	0.662285	0.209044
	H26	H	0.095697	0.337809	0.773748
	H27	H	0.895421	0.664742	0.777449
	H28	H	0.205865	0.907883	0.328975
	H29	H	0.208777	0.102172	0.657055
	H30	H	0.783230	0.096367	0.328637
	H31	H	0.778953	0.902536	0.657091
	H32	H	0.326600	0.207589	0.898896
	H33	H	0.659068	0.214574	0.093138
	H34	H	0.326622	0.785788	0.093135
	H35	H	0.660660	0.788560	0.895892
	H36	H	0.328367	0.894803	0.211388
	H37	H	0.658240	0.102601	0.208616
	H38	H	0.329580	0.098608	0.778881
	H39	H	0.658786	0.896900	0.776899
	H40	H	0.897195	0.216404	0.329881
	H41	H	0.094936	0.221115	0.655376
	H42	H	0.096365	0.785408	0.331749
	H43	H	0.891504	0.783779	0.655790
	H44	H	0.203896	0.333745	0.894184
	H45	H	0.207067	0.664569	0.086260
	H46	H	0.780557	0.333826	0.086998
	H47	H	0.783481	0.666042	0.896474
	H48	H	0.394025	0.119639	0.582326
	H49	H	0.580601	0.884218	0.581542
	H50	H	0.590913	0.116201	0.406458
	H51	H	0.385757	0.878323	0.399587
	H52	H	0.580315	0.418012	0.104489
	H53	H	0.587910	0.610727	0.872666
	H54	H	0.394039	0.588164	0.110200
	H55	H	0.402266	0.401829	0.876249
	H56	H	0.114500	0.592003	0.392136
	H57	H	0.877203	0.587539	0.585902
	H58	H	0.116722	0.407577	0.583970
	H59	H	0.878205	0.410694	0.408786
	H60	H	0.113527	0.414826	0.581425
	H61	H	0.874844	0.591969	0.591028
	H62	H	0.115260	0.599625	0.400422
	H63	H	0.874990	0.414657	0.394779
	H64	H	0.406439	0.589601	0.107092
	H65	H	0.602152	0.585667	0.876329
	H66	H	0.577240	0.396124	0.110332
	H67	H	0.400616	0.401330	0.875171
	H68	H	0.591254	0.120381	0.392022
	H69	H	0.591557	0.878900	0.586074
	H70	H	0.404200	0.122388	0.601851
	H71	H	0.410380	0.881049	0.388668
	H72	H	0.898163	0.618024	0.082743
	H73	H	0.075931	0.383125	0.087077
	H74	H	0.085801	0.615774	0.901993
	H75	H	0.897138	0.377985	0.883311
	H76	H	0.085899	0.901735	0.611842
	H77	H	0.079682	0.098250	0.380001
	H78	H	0.906627	0.102712	0.609444
	H79	H	0.901280	0.892671	0.373882
	H80	H	0.616239	0.091218	0.892592
	H81	H	0.372632	0.097448	0.083299
	H82	H	0.614533	0.903534	0.089219
	H83	H	0.375482	0.908827	0.903857
	H84	H	0.611596	0.910146	0.080500
	H85	H	0.378134	0.081219	0.081345
	H86	H	0.613511	0.097945	0.908227
	H87	H	0.375173	0.908601	0.898844
	H88	H	0.894621	0.097245	0.610759
	H89	H	0.096224	0.108462	0.371758
	H90	H	0.091344	0.914370	0.609931
	H91	H	0.890075	0.912401	0.376172
	H92	H	0.096443	0.619824	0.898313
	H93	H	0.084868	0.383127	0.079391
	H94	H	0.905196	0.619580	0.092620
	H95	H	0.915779	0.387416	0.898793
	H96	H	0.416159	0.113071	0.584874
	H97	H	0.581139	0.880370	0.593019
	H98	H	0.577740	0.115541	0.397890
	H99	H	0.406760	0.887605	0.413413
	H100	H	0.597646	0.406510	0.113912
	H101	H	0.573730	0.587733	0.884071
	H102	H	0.399513	0.599898	0.112696
	H103	H	0.401000	0.403100	0.877348
	H104	H	0.111663	0.589447	0.401869
	H105	H	0.875453	0.595034	0.584031
	H106	H	0.116006	0.413870	0.589103
	H107	H	0.872571	0.401178	0.398805
	H108	H	0.909348	0.614279	0.082511
	H109	H	0.086829	0.378964	0.089861
	H110	H	0.087055	0.620458	0.891114
	H111	H	0.891255	0.382850	0.908293
	H112	H	0.078124	0.911721	0.606711
	H113	H	0.098683	0.089420	0.377025
	H114	H	0.905142	0.089871	0.605745
	H115	H	0.912187	0.911830	0.382297
	H116	H	0.608821	0.081303	0.904720
	H117	H	0.371741	0.086448	0.096857
	H118	H	0.612511	0.913889	0.090850
	H119	H	0.373852	0.904180	0.902013
	C120	C	0.372766	0.009468	0.616887
	C121	C	0.615208	0.989933	0.615256
	C122	C	0.615504	0.008662	0.370732
	C123	C	0.373694	0.991327	0.372518
	C124	C	0.615150	0.377314	0.002259
	C125	C	0.616690	0.623446	0.985341
	C126	C	0.372320	0.620567	0.002116
	C127	C	0.370966	0.374826	0.983981
	C128	C	0.003442	0.622311	0.370801
	C129	C	0.985921	0.622087	0.614287
	C130	C	0.004855	0.381733	0.613353
	C131	C	0.985613	0.380887	0.371240
	C132	C	0.872431	0.508790	0.114382
	C133	C	0.114123	0.490537	0.113084
	C134	C	0.116920	0.509428	0.869053
	C135	C	0.873385	0.491862	0.869940
	C136	C	0.115104	0.881193	0.501906
	C137	C	0.119052	0.127092	0.484361
	C138	C	0.873641	0.123699	0.501071
	C139	C	0.871634	0.877657	0.485005
	C140	C	0.503203	0.118993	0.873151
	C141	C	0.483841	0.119434	0.115837
	C142	C	0.502643	0.878613	0.115542
	C143	C	0.484460	0.878139	0.872347
	C144	C	0.370463	0.885712	0.671839
	C145	C	0.617692	0.112831	0.672308
	C146	C	0.613934	0.884834	0.315307
	C147	C	0.374092	0.113983	0.315246
	C148	C	0.669818	0.381108	0.878903
	C149	C	0.671419	0.619877	0.107921
	C150	C	0.320945	0.614874	0.878038
	C151	C	0.313958	0.378204	0.106390
	C152	C	0.877662	0.675451	0.375896
	C153	C	0.111667	0.678095	0.610194
	C154	C	0.879171	0.325940	0.610936
	C155	C	0.111756	0.327946	0.372938
	C156	C	0.879445	0.381456	0.668434
	C157	C	0.111123	0.623164	0.668601
	C158	C	0.878769	0.621205	0.316044
	C159	C	0.110311	0.381971	0.313762
	C160	C	0.374922	0.676228	0.879971
	C161	C	0.614287	0.678583	0.108188
	C162	C	0.614637	0.320848	0.880335
	C163	C	0.371386	0.320220	0.106841
	C164	C	0.668988	0.884182	0.375121
	C165	C	0.670461	0.114945	0.611211
	C166	C	0.315075	0.885831	0.612585
	C167	C	0.322842	0.116986	0.377430
	C168	C	0.870158	0.386101	0.171526
	C169	C	0.117031	0.613752	0.169456
	C170	C	0.114921	0.386047	0.812524
	C171	C	0.875634	0.615791	0.815492
	C172	C	0.169744	0.885812	0.378764
	C173	C	0.172005	0.123471	0.607780
	C174	C	0.819890	0.118373	0.377859
	C175	C	0.816119	0.881330	0.607931
	C176	C	0.377381	0.172396	0.876839
	C177	C	0.608942	0.176918	0.113787
	C178	C	0.376937	0.822586	0.113743
	C179	C	0.610443	0.824736	0.875193
	C180	C	0.377793	0.877190	0.172282
	C181	C	0.608635	0.121102	0.171131
	C182	C	0.378631	0.117669	0.817361
	C183	C	0.609228	0.878579	0.815637
	C184	C	0.876761	0.178042	0.378258
	C185	C	0.115324	0.182629	0.606904
	C186	C	0.115296	0.824720	0.379874
	C187	C	0.872543	0.822205	0.607325
	C188	C	0.168737	0.384139	0.872638
	C189	C	0.170530	0.614698	0.108610
	C190	C	0.817059	0.383997	0.109717
	C191	C	0.820282	0.616540	0.875113
	C192	C	0.397591	0.096019	0.595835
	C193	C	0.591416	0.903403	0.593300
	C194	C	0.593334	0.094974	0.392396
	C195	C	0.394560	0.904694	0.394263
	C196	C	0.591867	0.400188	0.087498
	C197	C	0.594467	0.601273	0.899698
	C198	C	0.393636	0.599067	0.087809
	C199	C	0.394220	0.395903	0.898524
	C200	C	0.091249	0.600414	0.391992
	C201	C	0.898236	0.598401	0.593117
	C202	C	0.092761	0.405279	0.591207
	C203	C	0.897895	0.402471	0.394149
	C204	C	0.896975	0.594903	0.092465
	C205	C	0.089758	0.404214	0.091646
	C206	C	0.095968	0.595980	0.890621
	C207	C	0.895110	0.405329	0.890630
	C208	C	0.091963	0.902789	0.587332
	C209	C	0.097913	0.105355	0.398521
	C210	C	0.895618	0.103055	0.586467
	C211	C	0.894423	0.899210	0.399499
	C212	C	0.590408	0.096754	0.895443
	C213	C	0.396641	0.095360	0.093645
	C214	C	0.590135	0.902018	0.093256
	C215	C	0.397352	0.900593	0.895104
	Zn216	Zn	0.494839	-0.001339	0.744355
	Zn217	Zn	0.493139	-0.001009	0.242771
	Zn218	Zn	0.744465	0.499937	-0.007666
	Zn219	Zn	0.243216	0.498071	-0.008182
	Zn220	Zn	-0.005227	0.749092	0.493281
	Zn221	Zn	-0.004195	0.255208	0.492430
	Zn222	Zn	-0.004509	0.501406	0.741367
	Zn223	Zn	-0.006083	0.500354	0.243060
	Zn224	Zn	0.493569	0.751969	-0.005040
	Zn225	Zn	0.493569	0.246732	-0.005659
	Zn226	Zn	0.742981	0.000470	0.493432
	Zn227	Zn	0.246079	0.002559	0.493735
	N228	N	0.405633	0.963640	0.674558
	N229	N	0.583920	0.034202	0.674724
	N230	N	0.581692	0.963387	0.312285
	N231	N	0.405055	0.034991	0.312171
	N232	N	0.670227	0.415689	0.955735
	N233	N	0.673491	0.586718	0.030421
	N234	N	0.319200	0.580794	0.954965
	N235	N	0.313732	0.411493	0.029261
	N236	N	0.956445	0.676263	0.409399
	N237	N	0.032672	0.677569	0.577149
	N238	N	0.958273	0.326101	0.577439
	N239	N	0.033264	0.327103	0.408126
	N240	N	0.958752	0.415420	0.670075
	N241	N	0.032002	0.588939	0.671204
	N242	N	0.958131	0.589070	0.312666
	N243	N	0.030837	0.414105	0.312668
	N244	N	0.405975	0.679954	0.958086
	N245	N	0.580939	0.680834	0.031019
	N246	N	0.581688	0.318177	0.958029
	N247	N	0.405978	0.317740	0.029836
	N248	N	0.670213	0.962009	0.408829
	N249	N	0.669210	0.037496	0.576474
	N250	N	0.316324	0.963889	0.579036
	N251	N	0.322586	0.039760	0.412629
	N252	N	0.903928	0.464708	0.174479
	N253	N	0.082501	0.535560	0.172358
	N254	N	0.083269	0.464847	0.810091
	N255	N	0.907930	0.537398	0.812221
	N256	N	0.169871	0.920338	0.455726
	N257	N	0.174796	0.089972	0.530585
	N258	N	0.817779	0.085057	0.455031
	N259	N	0.815454	0.915110	0.530975
	N260	N	0.455930	0.173260	0.910963
	N261	N	0.530361	0.175970	0.079996
	N262	N	0.455503	0.823518	0.079111
	N263	N	0.531844	0.824103	0.909942
	N264	N	0.457108	0.911258	0.173655
	N265	N	0.529907	0.086009	0.172647
	N266	N	0.457914	0.085349	0.814836
	N267	N	0.529932	0.910905	0.813489
	N268	N	0.909409	0.181610	0.455675
	N269	N	0.083446	0.185218	0.529101
	N270	N	0.081890	0.821770	0.457338
	N271	N	0.906310	0.819439	0.529747
	N272	N	0.170315	0.461666	0.907082
	N273	N	0.168986	0.537039	0.074251
	N274	N	0.818278	0.461279	0.074794
	N275	N	0.818403	0.538422	0.907990
	O276	O	-0.030823	0.005332	-0.019180
	H277	H	-0.035311	0.014522	-0.021548
	H278	H	-0.037740	0.002056	-0.026312
	O279	O	0.462005	0.485054	0.603433
	H280	H	0.469058	0.491594	0.603933
	H281	H	0.454839	0.485852	0.610800
	O282	O	0.525545	0.493132	0.469168
	H283	H	0.520192	0.490051	0.471311
	H284	H	0.527160	0.491749	0.466266
	O285	O	-0.075482	0.909199	1.049864
	H286	H	-0.089800	0.911343	1.058494
	H287	H	-0.083678	0.909704	1.059184
	O288	O	0.438334	0.502165	0.518906
	H289	H	0.434820	0.506955	0.514409
	H290	H	0.439120	0.499577	0.514746
	O291	O	1.051623	1.068533	1.102562
	H292	H	1.064967	1.080783	1.102418
	H293	H	1.064628	1.066560	1.095638
	O294	O	1.069740	0.917987	0.942207
	H295	H	1.067268	0.910504	0.940210
	H296	H	1.079264	0.906842	0.942391
	O297	O	1.044639	0.031456	1.075473
	H298	H	1.048891	0.022650	1.071368
	H299	H	1.039483	0.023522	1.073578
	O300	O	0.468497	0.442243	0.402785
	H301	H	0.467174	0.448011	0.398032
	H302	H	0.474617	0.444861	0.398654
	O303	O	1.010286	0.050673	0.052908
	H304	H	1.022536	0.050985	0.043742
	H305	H	1.007910	0.049846	0.048142
	O306	O	-0.023538	0.886337	0.975578
	H307	H	-0.032068	0.874002	0.984615
	H308	H	-0.025641	0.894654	0.976275
	O309	O	1.094310	1.094315	0.938812
	H310	H	1.094217	1.088242	0.928510
	H311	H	1.079440	1.099566	0.945793
	O312	O	0.945105	0.034369	0.986260
	H313	H	0.953357	0.031981	0.985740
	H314	H	0.948543	0.034084	0.983795
	O315	O	0.526040	0.436832	0.469840
	H316	H	0.528690	0.425333	0.473975
	H317	H	0.511171	0.435041	0.464189
	O318	O	0.521657	0.558779	0.412170
	H319	H	0.532516	0.559602	0.408250
	H320	H	0.525042	0.547771	0.412542
	O321	O	0.934592	1.022291	0.862891
	H322	H	0.934948	1.021491	0.850022
	H323	H	0.941999	1.023819	0.870389
	O324	O	1.047721	-0.003697	-0.029697
	H325	H	1.038839	0.003009	-0.034428
	H326	H	1.034779	-0.015605	-0.029005
	O327	O	0.532161	0.489189	0.412428
	H328	H	0.525048	0.502878	0.417201
	H329	H	0.534391	0.488530	0.407084
	O330	O	1.016971	0.104799	1.088093
	H331	H	1.026881	0.115142	1.076012
	H332	H	1.021198	0.106252	1.086449
	O333	O	1.041910	0.934601	-0.086213
	H334	H	1.046932	0.928008	-0.089181
	H335	H	1.046285	0.945476	-0.080059
	O336	O	0.462526	0.462893	0.594874
	H337	H	0.461256	0.452843	0.598448
	H338	H	0.463781	0.459547	0.598469
	O339	O	0.539996	0.569607	0.544517
	H340	H	0.543791	0.572524	0.545152
	H341	H	0.530336	0.569446	0.538722
	O342	O	-0.145901	1.020040	-0.088456
	H343	H	-0.151021	1.027424	-0.080901
	H344	H	-0.152753	1.014261	-0.084411
	O345	O	-0.106656	0.062214	0.042716
	H346	H	-0.119679	0.061202	0.050012
	H347	H	-0.107413	0.070765	0.047398
	O348	O	0.587231	0.462444	0.558186
	H349	H	0.584854	0.469372	0.551323
	H350	H	0.593386	0.461481	0.563383
	O351	O	-0.005884	0.938312	0.956943
	H352	H	-0.016654	0.930331	0.961259
	H353	H	0.002739	0.942609	0.957731
	O354	O	0.503195	0.441091	0.570858
	H355	H	0.507616	0.442094	0.574449
	H356	H	0.501523	0.433059	0.573973
	O357	O	0.505727	0.459399	0.424478
	H358	H	0.508548	0.458227	0.410032
	H359	H	0.501227	0.469054	0.438560
	O360	O	0.004131	-0.046671	0.041894
	H361	H	0.000695	-0.053540	0.039624
	H362	H	-0.013191	-0.054498	0.057685
	O363	O	0.570544	0.564793	0.503522
	H364	H	0.573428	0.567733	0.512445
	H365	H	0.569039	0.550577	0.505144
	O366	O	-0.128389	-0.099715	1.092860
	H367	H	-0.132912	-0.107824	1.093286
	H368	H	-0.124632	-0.098019	1.100707
	O369	O	0.455641	0.491835	0.443301
	H370	H	0.442822	0.499305	0.438264
	H371	H	0.453871	0.487004	0.452130
