data_Molecule from HDF5

_cell_length_a		16.463881
_cell_length_b		16.353287
_cell_length_c		16.416292
_cell_angle_alpha	90.129129
_cell_angle_beta	90.085009
_cell_angle_gamma	89.792519
_symmetry_space_group_name_H-M	'P 1'
_symmetry_Int_Tables_number		1

loop_
	_symmetry_equiv_pos_as_xyz
	x,y,z

loop_
	_atom_site_label
	_atom_site_type_symbol
	_atom_site_fract_x
	_atom_site_fract_y
	_atom_site_fract_z
	H0	H	0.410410	0.846209	0.728305
	H1	H	0.620670	0.164017	0.734601
	H2	H	0.619916	0.847893	0.285751
	H3	H	0.402102	0.162829	0.285009
	H4	H	0.732751	0.398493	0.852866
	H5	H	0.733348	0.615959	0.167659
	H6	H	0.286305	0.614238	0.853014
	H7	H	0.291072	0.402834	0.168942
	H8	H	0.853712	0.729473	0.404970
	H9	H	0.167653	0.729129	0.619639
	H10	H	0.851858	0.285102	0.614326
	H11	H	0.167973	0.281234	0.403104
	H12	H	0.853658	0.396901	0.734293
	H13	H	0.166781	0.613694	0.736433
	H14	H	0.852266	0.611490	0.289597
	H15	H	0.167834	0.397346	0.287291
	H16	H	0.407212	0.725298	0.850058
	H17	H	0.614141	0.728787	0.168292
	H18	H	0.618063	0.282759	0.853629
	H19	H	0.403725	0.284688	0.167633
	H20	H	0.736318	0.848636	0.401499
	H21	H	0.733452	0.165372	0.616911
	H22	H	0.288573	0.849151	0.618808
	H23	H	0.284104	0.162046	0.397853
	H24	H	0.905551	0.346867	0.230216
	H25	H	0.114926	0.663314	0.233246
	H26	H	0.118601	0.346407	0.788560
	H27	H	0.903335	0.663260	0.786800
	H28	H	0.234354	0.897037	0.354807
	H29	H	0.239312	0.119547	0.666047
	H30	H	0.786485	0.115871	0.353995
	H31	H	0.786587	0.897311	0.667726
	H32	H	0.353080	0.229222	0.903305
	H33	H	0.667122	0.230978	0.117833
	H34	H	0.352873	0.787028	0.113373
	H35	H	0.667397	0.781451	0.901660
	H36	H	0.355818	0.896712	0.234185
	H37	H	0.667837	0.114262	0.234156
	H38	H	0.353641	0.114137	0.785302
	H39	H	0.669620	0.898758	0.787900
	H40	H	0.904870	0.226972	0.352159
	H41	H	0.118408	0.229826	0.667888
	H42	H	0.117684	0.782798	0.353973
	H43	H	0.902643	0.782104	0.668736
	H44	H	0.235207	0.348558	0.903834
	H45	H	0.231271	0.664333	0.118607
	H46	H	0.788018	0.348595	0.115876
	H47	H	0.785924	0.663593	0.900942
	H48	H	0.425292	0.117275	0.591795
	H49	H	0.599533	0.892074	0.600885
	H50	H	0.596621	0.116653	0.428385
	H51	H	0.424917	0.894077	0.424208
	H52	H	0.593270	0.419969	0.121912
	H53	H	0.602202	0.596252	0.894817
	H54	H	0.424468	0.601789	0.124537
	H55	H	0.417434	0.425774	0.898126
	H56	H	0.121272	0.587930	0.423579
	H57	H	0.899220	0.594826	0.595680
	H58	H	0.124815	0.416025	0.601738
	H59	H	0.895329	0.416900	0.415170
	H60	H	0.122739	0.415429	0.595383
	H61	H	0.900441	0.590174	0.596208
	H62	H	0.126520	0.594049	0.416498
	H63	H	0.897171	0.411499	0.424042
	H64	H	0.415437	0.596706	0.124858
	H65	H	0.599483	0.589777	0.898408
	H66	H	0.600683	0.416596	0.125952
	H67	H	0.430016	0.420352	0.899118
	H68	H	0.602723	0.120607	0.422606
	H69	H	0.600227	0.894231	0.596206
	H70	H	0.419009	0.122096	0.598375
	H71	H	0.422720	0.892820	0.422518
	H72	H	0.918368	0.619752	0.096131
	H73	H	0.097421	0.392904	0.098118
	H74	H	0.093762	0.617333	0.922645
	H75	H	0.923935	0.393612	0.924491
	H76	H	0.098208	0.920857	0.623746
	H77	H	0.094815	0.088321	0.400982
	H78	H	0.918902	0.094228	0.624491
	H79	H	0.921319	0.918409	0.397885
	H80	H	0.626105	0.099983	0.919246
	H81	H	0.396453	0.096973	0.100067
	H82	H	0.623067	0.918995	0.094469
	H83	H	0.399047	0.917982	0.922997
	H84	H	0.623586	0.921002	0.098659
	H85	H	0.399636	0.095407	0.093976
	H86	H	0.621430	0.095223	0.929529
	H87	H	0.398624	0.922365	0.915889
	H88	H	0.923718	0.090968	0.622151
	H89	H	0.096743	0.095709	0.398481
	H90	H	0.098141	0.918146	0.623176
	H91	H	0.923702	0.919394	0.399621
	H92	H	0.096840	0.616423	0.928439
	H93	H	0.104901	0.390258	0.095470
	H94	H	0.920273	0.621971	0.104374
	H95	H	0.920872	0.392724	0.924952
	H96	H	0.428672	0.119649	0.601293
	H97	H	0.604232	0.891723	0.598585
	H98	H	0.594587	0.117130	0.419294
	H99	H	0.425536	0.893127	0.421063
	H100	H	0.600536	0.424726	0.122479
	H101	H	0.595334	0.596000	0.897709
	H102	H	0.423726	0.591918	0.121271
	H103	H	0.419892	0.413028	0.893867
	H104	H	0.123652	0.598051	0.425912
	H105	H	0.897823	0.592853	0.599876
	H106	H	0.121526	0.421628	0.599050
	H107	H	0.900828	0.421685	0.423160
	H108	H	0.926324	0.618289	0.099319
	H109	H	0.102938	0.389295	0.103551
	H110	H	0.099861	0.619883	0.923332
	H111	H	0.922033	0.392570	0.922115
	H112	H	0.100462	0.919801	0.624933
	H113	H	0.102279	0.090261	0.397789
	H114	H	0.924522	0.097017	0.623859
	H115	H	0.924117	0.916772	0.398519
	H116	H	0.621707	0.088112	0.918623
	H117	H	0.399364	0.090692	0.099622
	H118	H	0.624931	0.916347	0.097900
	H119	H	0.396526	0.914515	0.916059
	C120	C	0.391195	0.014991	0.630538
	C121	C	0.634334	0.997292	0.631834
	C122	C	0.632694	0.014393	0.388970
	C123	C	0.389802	0.997102	0.387964
	C124	C	0.631246	0.385817	0.019127
	C125	C	0.631739	0.628143	1.001171
	C126	C	0.388136	0.629206	0.019089
	C127	C	0.389877	0.386594	1.001483
	C128	C	0.019640	0.627190	0.388936
	C129	C	1.002151	0.626804	0.632281
	C130	C	0.019122	0.384106	0.631762
	C131	C	1.001914	0.382982	0.387939
	C132	C	0.888698	0.515214	0.132140
	C133	C	0.132776	0.496305	0.132149
	C134	C	0.131686	0.513903	0.890366
	C135	C	0.888846	0.497422	0.889726
	C136	C	0.132138	0.885214	0.520151
	C137	C	0.133256	0.127393	0.501997
	C138	C	0.889494	0.127319	0.519207
	C139	C	0.889394	0.884579	0.502686
	C140	C	0.519023	0.127769	0.888399
	C141	C	0.502181	0.128041	0.131839
	C142	C	0.519940	0.885843	0.129695
	C143	C	0.502557	0.884873	0.886666
	C144	C	0.390391	0.894738	0.689812
	C145	C	0.637814	0.116613	0.693862
	C146	C	0.637822	0.895542	0.326466
	C147	C	0.384792	0.115194	0.325181
	C148	C	0.692495	0.381607	0.900511
	C149	C	0.692404	0.632597	0.120512
	C150	C	0.327047	0.632096	0.900186
	C151	C	0.330459	0.384188	0.121120
	C152	C	0.900957	0.688878	0.386404
	C153	C	0.120401	0.688626	0.636936
	C154	C	0.899947	0.324255	0.633665
	C155	C	0.120597	0.321806	0.385225
	C156	C	0.900635	0.380329	0.693223
	C157	C	0.119970	0.631081	0.695184
	C158	C	0.900232	0.629736	0.329190
	C159	C	0.120598	0.379412	0.327303
	C160	C	0.387143	0.687334	0.898719
	C161	C	0.633336	0.688998	0.120669
	C162	C	0.635486	0.323436	0.900809
	C163	C	0.386792	0.325389	0.120387
	C164	C	0.695517	0.895929	0.384440
	C165	C	0.693959	0.117363	0.635102
	C166	C	0.329941	0.896162	0.635011
	C167	C	0.326250	0.114990	0.382230
	C168	C	0.886539	0.395227	0.191320
	C169	C	0.133806	0.615770	0.192975
	C170	C	0.136188	0.394634	0.828705
	C171	C	0.885509	0.616118	0.827655
	C172	C	0.193662	0.880128	0.401961
	C173	C	0.197373	0.134975	0.619101
	C174	C	0.827553	0.132139	0.400911
	C175	C	0.827786	0.880992	0.620868
	C176	C	0.400380	0.189183	0.885145
	C177	C	0.619987	0.190235	0.135921
	C178	C	0.400838	0.825855	0.132227
	C179	C	0.620708	0.822708	0.884185
	C180	C	0.402378	0.880920	0.192300
	C181	C	0.620350	0.132112	0.193729
	C182	C	0.400945	0.131599	0.826483
	C183	C	0.621773	0.881366	0.827444
	C184	C	0.886568	0.187884	0.400144
	C185	C	0.137073	0.190180	0.620237
	C186	C	0.135512	0.822931	0.401840
	C187	C	0.885678	0.823221	0.621355
	C188	C	0.194468	0.395593	0.886072
	C189	C	0.191846	0.616173	0.135787
	C190	C	0.828255	0.395841	0.134153
	C191	C	0.827004	0.616098	0.884517
	C192	C	0.416863	0.097990	0.604681
	C193	C	0.608817	0.914539	0.606014
	C194	C	0.605594	0.096447	0.415828
	C195	C	0.416729	0.914759	0.415002
	C196	C	0.605431	0.412506	0.101866
	C197	C	0.606425	0.601810	0.918389
	C198	C	0.413665	0.603999	0.101933
	C199	C	0.415238	0.412195	0.918734
	C200	C	0.102160	0.601057	0.414498
	C201	C	0.920579	0.600279	0.605130
	C202	C	0.101602	0.410153	0.606063
	C203	C	0.919335	0.408998	0.413325
	C204	C	0.914179	0.598322	0.107224
	C205	C	0.108474	0.412728	0.106485
	C206	C	0.104457	0.596303	0.917179
	C207	C	0.914740	0.414626	0.916238
	C208	C	0.106421	0.911942	0.602539
	C209	C	0.106127	0.099301	0.420394
	C210	C	0.915236	0.101535	0.601757
	C211	C	0.915495	0.910531	0.420112
	C212	C	0.601629	0.101796	0.914829
	C213	C	0.420073	0.101818	0.105580
	C214	C	0.602404	0.911417	0.104147
	C215	C	0.419726	0.910904	0.911242
	Zn216	Zn	0.512012	0.006691	0.758954
	Zn217	Zn	0.512047	0.005124	0.260009
	Zn218	Zn	0.760123	0.506670	0.010754
	Zn219	Zn	0.261117	0.506705	0.010817
	Zn220	Zn	0.010891	0.755950	0.511672
	Zn221	Zn	0.010434	0.255159	0.510431
	Zn222	Zn	0.010940	0.504792	0.761478
	Zn223	Zn	0.010554	0.504610	0.259823
	Zn224	Zn	0.510533	0.757018	0.008915
	Zn225	Zn	0.510007	0.257465	0.010292
	Zn226	Zn	0.761211	0.006868	0.510624
	Zn227	Zn	0.261840	0.005973	0.510449
	N228	N	0.427439	0.969818	0.687360
	N229	N	0.601498	0.040978	0.692196
	N230	N	0.599407	0.969976	0.329357
	N231	N	0.423597	0.040758	0.328619
	N232	N	0.689803	0.419649	0.975145
	N233	N	0.691819	0.595844	0.045152
	N234	N	0.327232	0.597069	0.976299
	N235	N	0.332173	0.421489	0.046176
	N236	N	0.976282	0.687641	0.422616
	N237	N	0.046278	0.686216	0.598597
	N238	N	0.974583	0.326319	0.596411
	N239	N	0.045867	0.323854	0.422254
	N240	N	0.975937	0.416630	0.692294
	N241	N	0.045622	0.593397	0.692487
	N242	N	0.975181	0.592309	0.330477
	N243	N	0.045716	0.416641	0.328762
	N244	N	0.424164	0.685817	0.973628
	N245	N	0.596510	0.686395	0.045505
	N246	N	0.598322	0.325642	0.975741
	N247	N	0.423086	0.326963	0.045118
	N248	N	0.692757	0.971085	0.422332
	N249	N	0.692094	0.042280	0.597553
	N250	N	0.330046	0.972239	0.599371
	N251	N	0.329260	0.040403	0.420661
	N252	N	0.923448	0.470430	0.190034
	N253	N	0.098053	0.540158	0.190990
	N254	N	0.097743	0.469289	0.831406
	N255	N	0.923403	0.541229	0.830782
	N256	N	0.191741	0.918362	0.476540
	N257	N	0.195198	0.096820	0.544464
	N258	N	0.829074	0.095322	0.476003
	N259	N	0.829885	0.918325	0.545928
	N260	N	0.475113	0.187121	0.922707
	N261	N	0.545381	0.188091	0.098419
	N262	N	0.474973	0.828753	0.094030
	N263	N	0.545510	0.824740	0.920358
	N264	N	0.477497	0.917405	0.190871
	N265	N	0.545923	0.094348	0.191395
	N266	N	0.475775	0.094363	0.828396
	N267	N	0.547354	0.919479	0.829118
	N268	N	0.924398	0.184979	0.474611
	N269	N	0.097801	0.185601	0.546459
	N270	N	0.097914	0.825988	0.476395
	N271	N	0.923231	0.825397	0.546771
	N272	N	0.191823	0.470753	0.923463
	N273	N	0.191437	0.540708	0.098723
	N274	N	0.829492	0.471531	0.098139
	N275	N	0.829027	0.541362	0.922493
	O276	O	0.613296	0.424647	0.689583
	H277	H	0.624098	0.433399	0.684704
	H278	H	0.604740	0.405533	0.704763
	O279	O	1.227552	-0.183339	0.994750
	H280	H	1.196524	-0.184401	1.015270
	H281	H	1.249958	-0.222406	0.996489
	O282	O	0.142721	0.897184	1.112910
	H283	H	0.158497	0.897396	1.124783
	H284	H	0.144693	0.881837	1.108113
	O285	O	0.284073	0.737860	0.279043
	H286	H	0.280289	0.743612	0.299327
	H287	H	0.278205	0.713985	0.277313
	O288	O	0.939506	0.938506	-0.180825
	H289	H	0.951582	0.929975	-0.162298
	H290	H	0.929870	0.925395	-0.181374
	O291	O	0.308036	0.617934	0.624448
	H292	H	0.319579	0.606314	0.631231
	H293	H	0.314194	0.596554	0.604477
	O294	O	-0.206291	-0.207629	1.043920
	H295	H	-0.202463	-0.209384	1.082074
	H296	H	-0.226696	-0.228094	1.060997
	O297	O	0.303174	0.461216	0.693220
	H298	H	0.298055	0.473461	0.719896
	H299	H	0.304582	0.469538	0.684800
	O300	O	0.714222	0.578569	0.711391
	H301	H	0.709189	0.591091	0.714097
	H302	H	0.712660	0.583070	0.725100
	O303	O	0.376977	0.693615	0.499253
	H304	H	0.375103	0.660837	0.502104
	H305	H	0.351783	0.705453	0.490831
	O306	O	0.683212	0.489077	0.332380
	H307	H	0.698211	0.493256	0.327682
	H308	H	0.697649	0.514523	0.345028
	O309	O	1.030573	0.208434	0.216133
	H310	H	1.031444	0.221644	0.226617
	H311	H	1.025922	0.216618	0.202277
	O312	O	0.226537	0.981162	0.790320
	H313	H	0.190144	0.996065	0.787977
	H314	H	0.258367	0.979170	0.748538
	O315	O	0.504124	0.479486	0.361371
	H316	H	0.505257	0.489088	0.354627
	H317	H	0.525542	0.489094	0.377288
	O318	O	1.204883	0.073287	0.158401
	H319	H	1.201781	0.103463	0.144132
	H320	H	1.222641	0.082291	0.174927
	O321	O	-0.172110	0.194427	-0.174100
	H322	H	-0.184027	0.156720	-0.168017
	H323	H	-0.180892	0.188465	-0.135468
	O324	O	0.526385	0.707867	0.483684
	H325	H	0.523146	0.694271	0.480881
	H326	H	0.498199	0.721190	0.469824
	O327	O	0.330690	0.324481	0.692162
	H328	H	0.325796	0.320357	0.651641
	H329	H	0.324846	0.364200	0.694448
	O330	O	0.102478	0.868605	0.158083
	H331	H	0.133282	0.872064	0.170247
	H332	H	0.094644	0.886681	0.133003
	O333	O	0.687301	0.333174	0.463409
	H334	H	0.675233	0.331731	0.450042
	H335	H	0.712131	0.318565	0.470278
	O336	O	0.214236	0.138543	0.097834
	H337	H	0.219624	0.139004	0.082248
	H338	H	0.226171	0.142811	0.084649
	O339	O	-0.173088	0.960125	-0.008668
	H340	H	-0.178530	0.946908	0.021730
	H341	H	-0.157308	0.946254	-0.020896
	O342	O	-0.178169	0.877772	1.200300
	H343	H	-0.145906	0.877111	1.202096
	H344	H	-0.192725	0.913763	1.218070
	O345	O	0.668553	0.681149	-0.335212
	H346	H	0.639966	0.694125	-0.334360
	H347	H	0.671167	0.666673	-0.347881
	O348	O	0.530259	0.495412	0.600915
	H349	H	0.527081	0.488951	0.593726
	H350	H	0.554160	0.486373	0.600214
	O351	O	-0.143944	1.144309	1.097301
	H352	H	-0.135875	1.127641	1.085385
	H353	H	-0.141784	1.140755	1.061184
	O354	O	0.195970	0.817607	-0.176582
	H355	H	0.197396	0.819450	-0.144734
	H356	H	0.217275	0.838261	-0.191186
	O357	O	-0.190270	0.210860	0.989735
	H358	H	-0.200955	0.169480	1.011408
	H359	H	-0.204653	0.230752	0.994363
	O360	O	0.495806	0.658300	0.404016
	H361	H	0.501388	0.663047	0.380913
	H362	H	0.481305	0.634173	0.420555
	O363	O	0.216294	0.044950	0.960965
	H364	H	0.219409	0.027310	0.930459
	H365	H	0.223887	0.022124	0.968338
	O366	O	0.375582	0.564463	0.509645
	H367	H	0.358474	0.553598	0.499619
	H368	H	0.388004	0.563312	0.485025
	O369	O	0.346920	0.293862	0.512760
	H370	H	0.390572	0.288343	0.488148
	H371	H	0.322081	0.258081	0.518272
	O372	O	1.004678	0.193325	0.793071
	H373	H	0.985324	0.206151	0.782105
	H374	H	0.970918	0.194161	0.784489
	O375	O	0.577357	0.317267	0.565368
	H376	H	0.586364	0.324042	0.567632
	H377	H	0.571303	0.317894	0.589390
	O378	O	0.599598	0.608033	0.545186
	H379	H	0.579258	0.612604	0.540643
	H380	H	0.623275	0.629960	0.550139
	O381	O	0.695997	0.345332	0.323093
	H382	H	0.710375	0.360432	0.304828
	H383	H	0.704394	0.369751	0.332719
	O384	O	0.525963	0.657845	0.320737
	H385	H	0.518529	0.669769	0.291074
	H386	H	0.504713	0.650039	0.333847
	O387	O	0.048612	0.095308	0.806110
	H388	H	0.024505	0.073321	0.795734
	H389	H	0.021380	0.121362	0.805425
	O390	O	-0.162167	0.020278	0.178036
	H391	H	-0.154411	0.016772	0.186808
	H392	H	-0.159300	0.013615	0.187035
	O393	O	1.055775	1.114668	0.938768
	H394	H	1.067404	1.114142	0.925132
	H395	H	1.063091	1.103368	0.921248
	O396	O	1.025755	-0.005681	0.122928
	H397	H	1.022236	0.009022	0.119847
	H398	H	1.045805	0.000856	0.107819
	O399	O	0.923710	-0.039756	0.967960
	H400	H	0.943127	-0.042527	0.975350
	H401	H	0.933503	-0.047905	0.979712
	O402	O	1.024668	0.832458	0.804216
	H403	H	1.031947	0.805915	0.792807
	H404	H	1.054136	0.832299	0.810747
	O405	O	0.953876	0.807754	0.212954
	H406	H	0.965758	0.819185	0.232992
	H407	H	0.975867	0.813640	0.229213
	O408	O	0.717084	-0.405907	0.456809
	H409	H	0.720201	-0.419073	0.485715
	H410	H	0.718948	-0.371136	0.478151
	O411	O	0.971867	0.792318	-0.083058
	H412	H	0.987361	0.787235	-0.094929
	H413	H	0.945427	0.775839	-0.077268
	O414	O	0.383194	0.453590	0.381664
	H415	H	0.406415	0.434797	0.378047
	H416	H	0.393867	0.460577	0.385208
	O417	O	0.299777	0.617911	0.349849
	H418	H	0.291845	0.598729	0.328337
	H419	H	0.300036	0.615186	0.335051
	O420	O	0.017030	0.207407	0.000914
	H421	H	0.033532	0.206334	-0.007228
	H422	H	0.010203	0.216366	-0.023229
	O423	O	0.483124	0.305452	0.452764
	H424	H	0.511988	0.305913	0.441516
	H425	H	0.510395	0.314394	0.450659
	O426	O	0.491799	0.290229	0.724495
	H427	H	0.487618	0.272539	0.747569
	H428	H	0.456740	0.289608	0.721966
	O429	O	0.190857	1.164667	0.180182
	H430	H	0.198263	1.172291	0.139395
	H431	H	0.164300	1.178336	0.187390
	O432	O	0.513838	0.616124	0.557967
	H433	H	0.511111	0.627734	0.554007
	H434	H	0.526120	0.607384	0.557375
	O435	O	0.299719	0.493505	0.379019
	H436	H	0.300943	0.466213	0.372591
	H437	H	0.298898	0.473210	0.366757
	O438	O	-0.077046	0.050004	0.168213
	H439	H	-0.054036	0.075691	0.159733
	H440	H	-0.056182	0.027629	0.154496
	O441	O	1.026415	-0.154008	0.054000
	H442	H	1.021264	-0.150963	0.065140
	H443	H	1.014021	-0.152010	0.063713
	O444	O	-0.200713	1.029583	0.798131
	H445	H	-0.226870	1.023770	0.774120
	H446	H	-0.192920	1.004943	0.813562
	O447	O	0.532653	0.286159	0.293976
	H448	H	0.544203	0.257363	0.265266
	H449	H	0.574058	0.291288	0.299491
	O450	O	0.516776	0.663542	0.683533
	H451	H	0.515531	0.663776	0.687694
	H452	H	0.503630	0.669400	0.673141
	O453	O	0.728486	0.484093	0.607818
	H454	H	0.736305	0.474305	0.613728
	H455	H	0.726119	0.489694	0.628054
