data_Molecule from HDF5

_cell_length_a		16.233520
_cell_length_b		16.239527
_cell_length_c		16.386479
_cell_angle_alpha	90.045998
_cell_angle_beta	90.055440
_cell_angle_gamma	89.865208
_symmetry_space_group_name_H-M	'P 1'
_symmetry_Int_Tables_number		1

loop_
	_symmetry_equiv_pos_as_xyz
	x,y,z

loop_
	_atom_site_label
	_atom_site_type_symbol
	_atom_site_fract_x
	_atom_site_fract_y
	_atom_site_fract_z
	H0	H	0.398345	0.832539	0.714989
	H1	H	0.604802	0.155087	0.721442
	H2	H	0.602221	0.833653	0.281742
	H3	H	0.390270	0.155526	0.276730
	H4	H	0.718453	0.392175	0.836941
	H5	H	0.721176	0.601706	0.157746
	H6	H	0.282914	0.595414	0.835535
	H7	H	0.279866	0.394279	0.158362
	H8	H	0.837330	0.715437	0.396075
	H9	H	0.162824	0.713078	0.598692
	H10	H	0.836662	0.279105	0.601501
	H11	H	0.160349	0.278843	0.395845
	H12	H	0.837108	0.394380	0.716986
	H13	H	0.161347	0.600625	0.716837
	H14	H	0.838410	0.603164	0.277248
	H15	H	0.160390	0.393749	0.279788
	H16	H	0.397727	0.712895	0.836452
	H17	H	0.600036	0.713234	0.160628
	H18	H	0.602210	0.276021	0.837231
	H19	H	0.396679	0.278108	0.158801
	H20	H	0.716550	0.832871	0.399806
	H21	H	0.716516	0.157263	0.604565
	H22	H	0.281822	0.833668	0.600668
	H23	H	0.281477	0.158328	0.397638
	H24	H	0.894727	0.335325	0.217052
	H25	H	0.104416	0.658140	0.216483
	H26	H	0.102209	0.335150	0.778687
	H27	H	0.895635	0.659176	0.779392
	H28	H	0.217227	0.896182	0.338095
	H29	H	0.216433	0.099552	0.660817
	H30	H	0.777942	0.100065	0.339299
	H31	H	0.783420	0.894264	0.661228
	H32	H	0.335604	0.209482	0.899136
	H33	H	0.660779	0.213735	0.101805
	H34	H	0.334869	0.780793	0.098307
	H35	H	0.660820	0.777741	0.898159
	H36	H	0.336530	0.892581	0.217707
	H37	H	0.659942	0.100049	0.219651
	H38	H	0.338192	0.096363	0.781298
	H39	H	0.660735	0.890782	0.781028
	H40	H	0.895905	0.214525	0.337465
	H41	H	0.100998	0.216913	0.658902
	H42	H	0.102864	0.779415	0.336841
	H43	H	0.899102	0.777569	0.659536
	H44	H	0.213882	0.333492	0.896093
	H45	H	0.212553	0.659549	0.094767
	H46	H	0.782882	0.334426	0.099149
	H47	H	0.780471	0.658987	0.896007
	H48	H	0.408051	0.110890	0.585458
	H49	H	0.593908	0.879442	0.587136
	H50	H	0.592060	0.113118	0.406673
	H51	H	0.404272	0.877812	0.404717
	H52	H	0.592039	0.410726	0.110598
	H53	H	0.581216	0.592395	0.885631
	H54	H	0.404028	0.592119	0.114095
	H55	H	0.400832	0.397782	0.878630
	H56	H	0.115448	0.588637	0.406823
	H57	H	0.885301	0.581056	0.589256
	H58	H	0.114591	0.409878	0.593654
	H59	H	0.882767	0.412595	0.400992
	H60	H	0.115144	0.402173	0.586923
	H61	H	0.882446	0.591000	0.592326
	H62	H	0.114912	0.585022	0.406324
	H63	H	0.880169	0.401015	0.406471
	H64	H	0.401864	0.583799	0.113128
	H65	H	0.595924	0.589287	0.881400
	H66	H	0.585217	0.407079	0.110167
	H67	H	0.404613	0.410372	0.884018
	H68	H	0.581637	0.110502	0.406399
	H69	H	0.591142	0.877646	0.594672
	H70	H	0.403756	0.114011	0.595108
	H71	H	0.415332	0.881158	0.405477
	H72	H	0.910075	0.611864	0.086359
	H73	H	0.092026	0.380237	0.085495
	H74	H	0.092787	0.612176	0.911506
	H75	H	0.913849	0.384117	0.909743
	H76	H	0.092865	0.902642	0.614980
	H77	H	0.089423	0.098694	0.381145
	H78	H	0.901178	0.088039	0.616567
	H79	H	0.902607	0.914470	0.385374
	H80	H	0.615908	0.082461	0.906632
	H81	H	0.382969	0.086521	0.091797
	H82	H	0.613639	0.900587	0.083836
	H83	H	0.380556	0.897017	0.908047
	H84	H	0.611414	0.912203	0.090390
	H85	H	0.383614	0.086622	0.087545
	H86	H	0.616206	0.088236	0.909076
	H87	H	0.385562	0.909287	0.911924
	H88	H	0.912339	0.080607	0.610119
	H89	H	0.101267	0.081118	0.383083
	H90	H	0.091425	0.907830	0.613226
	H91	H	0.917095	0.905943	0.388075
	H92	H	0.094350	0.616513	0.900336
	H93	H	0.090631	0.378808	0.093285
	H94	H	0.910791	0.611842	0.087427
	H95	H	0.904844	0.379959	0.908290
	H96	H	0.414402	0.110770	0.594666
	H97	H	0.587024	0.880314	0.589221
	H98	H	0.587821	0.107892	0.415408
	H99	H	0.408632	0.881905	0.415342
	H100	H	0.591218	0.402748	0.112376
	H101	H	0.586749	0.578253	0.887745
	H102	H	0.409821	0.586367	0.111168
	H103	H	0.414190	0.399706	0.884170
	H104	H	0.116113	0.586992	0.402987
	H105	H	0.885780	0.589470	0.581957
	H106	H	0.111578	0.411165	0.583645
	H107	H	0.885885	0.410511	0.413093
	H108	H	0.911000	0.610627	0.086599
	H109	H	0.084660	0.381487	0.088412
	H110	H	0.083605	0.611789	0.903562
	H111	H	0.911722	0.381118	0.900851
	H112	H	0.087892	0.904108	0.613243
	H113	H	0.081109	0.081632	0.389492
	H114	H	0.913970	0.094389	0.613781
	H115	H	0.904234	0.898100	0.380993
	H116	H	0.613516	0.083994	0.912132
	H117	H	0.385079	0.083250	0.089184
	H118	H	0.616371	0.902310	0.097356
	H119	H	0.380836	0.907438	0.899078
	C120	C	0.378002	0.004281	0.621074
	C121	C	0.621144	0.986249	0.621772
	C122	C	0.619325	0.003828	0.378878
	C123	C	0.377521	0.987212	0.377759
	C124	C	0.620807	0.374755	0.005488
	C125	C	0.620107	0.617947	0.990459
	C126	C	0.376083	0.617263	0.006144
	C127	C	0.375834	0.373034	0.989044
	C128	C	0.008392	0.618717	0.375199
	C129	C	0.991304	0.618000	0.618663
	C130	C	0.007064	0.376217	0.619535
	C131	C	0.989952	0.376458	0.376395
	C132	C	0.878819	0.504936	0.118266
	C133	C	0.119939	0.487769	0.118849
	C134	C	0.120216	0.505766	0.875183
	C135	C	0.877784	0.488568	0.875648
	C136	C	0.121501	0.874776	0.507393
	C137	C	0.120775	0.118751	0.490772
	C138	C	0.876569	0.118859	0.507643
	C139	C	0.877996	0.874730	0.490712
	C140	C	0.508170	0.115538	0.877982
	C141	C	0.490051	0.117127	0.121264
	C142	C	0.506553	0.874746	0.120229
	C143	C	0.489877	0.873703	0.876785
	C144	C	0.378363	0.881668	0.677249
	C145	C	0.622660	0.107168	0.681512
	C146	C	0.621235	0.881952	0.320752
	C147	C	0.374004	0.107914	0.317648
	C148	C	0.679056	0.373550	0.884947
	C149	C	0.680490	0.619961	0.110342
	C150	C	0.320267	0.616092	0.884215
	C151	C	0.318779	0.374615	0.110322
	C152	C	0.886137	0.676810	0.375953
	C153	C	0.113809	0.675136	0.618591
	C154	C	0.885164	0.318095	0.620479
	C155	C	0.111827	0.317827	0.376490
	C156	C	0.885498	0.375617	0.677966
	C157	C	0.113004	0.619090	0.677194
	C158	C	0.886643	0.620965	0.316826
	C159	C	0.111891	0.374919	0.318580
	C160	C	0.377444	0.674524	0.884735
	C161	C	0.620199	0.675623	0.111701
	C162	C	0.621144	0.315535	0.885244
	C163	C	0.376724	0.316591	0.110520
	C164	C	0.678177	0.881794	0.379348
	C165	C	0.678530	0.108221	0.623331
	C166	C	0.320288	0.882312	0.620201
	C167	C	0.319524	0.109414	0.377726
	C168	C	0.876665	0.383728	0.177428
	C169	C	0.121993	0.609423	0.176892
	C170	C	0.120796	0.383499	0.817780
	C171	C	0.876682	0.610651	0.818115
	C172	C	0.178791	0.876018	0.386142
	C173	C	0.178061	0.119180	0.612005
	C174	C	0.817381	0.119050	0.387051
	C175	C	0.821525	0.874462	0.612394
	C176	C	0.385179	0.171787	0.878985
	C177	C	0.611992	0.175235	0.121575
	C178	C	0.383881	0.818478	0.118714
	C179	C	0.612117	0.816121	0.878264
	C180	C	0.384780	0.874229	0.178036
	C181	C	0.611534	0.118559	0.180034
	C182	C	0.386251	0.115467	0.820443
	C183	C	0.612237	0.872592	0.820061
	C184	C	0.876194	0.175957	0.386088
	C185	C	0.120427	0.177511	0.611242
	C186	C	0.121591	0.818218	0.385480
	C187	C	0.879285	0.816552	0.611670
	C188	C	0.176536	0.382574	0.876153
	C189	C	0.175946	0.610328	0.116323
	C190	C	0.820732	0.383115	0.118832
	C191	C	0.819476	0.610558	0.876373
	C192	C	0.401839	0.089689	0.598426
	C193	C	0.597443	0.901327	0.597446
	C194	C	0.594594	0.088491	0.402621
	C195	C	0.402185	0.902583	0.401735
	C196	C	0.596506	0.399693	0.089378
	C197	C	0.595250	0.593598	0.906670
	C198	C	0.398764	0.594270	0.090823
	C199	C	0.399568	0.395902	0.904296
	C200	C	0.093194	0.594037	0.398551
	C201	C	0.906450	0.594060	0.594596
	C202	C	0.091781	0.400480	0.595089
	C203	C	0.905157	0.400906	0.399986
	C204	C	0.903602	0.589556	0.093796
	C205	C	0.095844	0.402374	0.095874
	C206	C	0.097151	0.590997	0.898457
	C207	C	0.902716	0.403790	0.899438
	C208	C	0.097688	0.897998	0.591841
	C209	C	0.097434	0.094290	0.406365
	C210	C	0.901687	0.094794	0.591492
	C211	C	0.901122	0.899193	0.406641
	C212	C	0.593264	0.091803	0.902139
	C213	C	0.405730	0.092586	0.096715
	C214	C	0.591782	0.898129	0.097175
	C215	C	0.404410	0.897694	0.899698
	Zn216	Zn	0.500018	-0.005650	0.748869
	Zn217	Zn	0.498596	-0.004726	0.249267
	Zn218	Zn	0.750046	0.496384	-0.002280
	Zn219	Zn	0.247060	0.495752	-0.002846
	Zn220	Zn	0.000203	0.746103	0.497411
	Zn221	Zn	-0.001835	0.247998	0.497790
	Zn222	Zn	-0.000302	0.497387	0.747704
	Zn223	Zn	-0.001260	0.496676	0.247323
	Zn224	Zn	0.497749	0.746469	-0.001092
	Zn225	Zn	0.498909	0.244695	-0.001555
	Zn226	Zn	0.748356	-0.003622	0.500424
	Zn227	Zn	0.249848	-0.003512	0.499558
	N228	N	0.413634	0.958565	0.677935
	N229	N	0.587596	0.030193	0.680570
	N230	N	0.585604	0.958883	0.320206
	N231	N	0.409624	0.031049	0.317664
	N232	N	0.679002	0.409614	0.960809
	N233	N	0.680539	0.584766	0.034020
	N234	N	0.319291	0.581007	0.960596
	N235	N	0.318018	0.408895	0.033500
	N236	N	0.962778	0.675585	0.411508
	N237	N	0.037139	0.674671	0.582921
	N238	N	0.961659	0.318462	0.584867
	N239	N	0.035022	0.318689	0.411731
	N240	N	0.962377	0.410992	0.677514
	N241	N	0.035885	0.584289	0.677510
	N242	N	0.963724	0.585585	0.316072
	N243	N	0.035178	0.410843	0.318530
	N244	N	0.411290	0.675345	0.961531
	N245	N	0.583455	0.674562	0.036214
	N246	N	0.585659	0.316067	0.961361
	N247	N	0.411554	0.315620	0.034221
	N248	N	0.677161	0.958613	0.414709
	N249	N	0.677692	0.032139	0.586769
	N250	N	0.319993	0.959668	0.586100
	N251	N	0.321436	0.033339	0.414500
	N252	N	0.911934	0.460621	0.177256
	N253	N	0.087895	0.532064	0.178532
	N254	N	0.086732	0.461008	0.816912
	N255	N	0.912043	0.533680	0.817388
	N256	N	0.178650	0.910681	0.462775
	N257	N	0.178445	0.083490	0.535963
	N258	N	0.817659	0.084250	0.463503
	N259	N	0.820608	0.910088	0.536213
	N260	N	0.462105	0.171825	0.914116
	N261	N	0.535361	0.174784	0.085931
	N262	N	0.460579	0.818913	0.083375
	N263	N	0.535099	0.816968	0.913149
	N264	N	0.462229	0.908334	0.179208
	N265	N	0.534811	0.082980	0.179981
	N266	N	0.463795	0.081177	0.819634
	N267	N	0.535171	0.907699	0.819137
	N268	N	0.912097	0.176086	0.462185
	N269	N	0.085565	0.177280	0.534732
	N270	N	0.086858	0.817104	0.461915
	N271	N	0.913651	0.816526	0.535141
	N272	N	0.176389	0.459423	0.911268
	N273	N	0.174972	0.533506	0.081102
	N274	N	0.821676	0.459634	0.082877
	N275	N	0.819914	0.533515	0.911146
	O276	O	0.533622	0.362736	0.439893
	H277	H	0.522453	0.362995	0.438778
	H278	H	0.539846	0.358006	0.448942
	O279	O	0.663485	0.607242	0.638006
	H280	H	0.664973	0.611350	0.650536
	H281	H	0.655552	0.622447	0.626910
	O282	O	0.964524	0.128025	0.819388
	H283	H	0.955338	0.127173	0.809488
	H284	H	0.944751	0.123917	0.828562
	O285	O	0.391190	0.571427	0.415273
	H286	H	0.370379	0.566085	0.414382
	H287	H	0.387318	0.580193	0.412034
	O288	O	0.883962	0.869628	1.121961
	H289	H	0.873679	0.861780	1.126766
	H290	H	0.872364	0.868648	1.116665
	O291	O	0.138555	0.969766	0.062642
	H292	H	0.152225	0.961222	0.072856
	H293	H	0.119109	0.969392	0.062037
	O294	O	0.403085	0.459531	0.460000
	H295	H	0.417666	0.451669	0.471124
	H296	H	0.409670	0.451478	0.472032
	O297	O	0.535633	0.565447	0.560958
	H298	H	0.537298	0.570651	0.560491
	H299	H	0.543154	0.550702	0.550681
	O300	O	0.632475	0.482350	0.308317
	H301	H	0.630068	0.486413	0.305157
	H302	H	0.635483	0.489783	0.300907
	O303	O	0.373157	0.577562	0.537633
	H304	H	0.379683	0.566555	0.539720
	H305	H	0.381357	0.589269	0.541965
	O306	O	0.296087	0.525778	0.490437
	H307	H	0.287415	0.528509	0.485119
	H308	H	0.287785	0.511259	0.505806
	O309	O	0.391145	0.511976	0.321656
	H310	H	0.386885	0.527687	0.325802
	H311	H	0.386243	0.507149	0.328969
	O312	O	0.025149	0.126114	0.030601
	H313	H	0.029620	0.120825	0.029521
	H314	H	0.022908	0.113579	0.012957
	O315	O	0.671973	0.616164	0.638552
	H316	H	0.683824	0.614376	0.648720
	H317	H	0.665109	0.614373	0.626796
	O318	O	-0.099784	1.057807	0.996016
	H319	H	-0.091423	1.056749	0.977624
	H320	H	-0.105960	1.060793	1.000180
	O321	O	0.676849	0.331733	0.340996
	H322	H	0.654490	0.329355	0.326146
	H323	H	0.670085	0.351173	0.326102
	O324	O	0.065311	0.976281	-0.093333
	H325	H	0.051106	0.980833	-0.089934
	H326	H	0.069018	0.980765	-0.089957
	O327	O	0.705727	0.318407	0.470959
	H328	H	0.719876	0.313605	0.455694
	H329	H	0.714820	0.312146	0.444816
	O330	O	0.455480	-0.573690	1.680351
	H331	H	0.467703	-0.579173	1.683583
	H332	H	0.461480	-0.577179	1.673976
	O333	O	-0.125241	0.092082	0.977357
	H334	H	-0.129490	0.101768	0.976933
	H335	H	-0.110229	0.101028	0.968270
	O336	O	0.423410	0.330225	0.404968
	H337	H	0.417034	0.337091	0.403645
	H338	H	0.420790	0.329344	0.405003
	O339	O	0.548667	-0.464282	0.334384
	H340	H	0.534826	-0.462613	0.339610
	H341	H	0.551968	-0.455609	0.336661
	O342	O	0.114962	0.127361	-0.027493
	H343	H	0.106117	0.129603	-0.028259
	H344	H	0.106957	0.132831	-0.050593
	O345	O	1.182784	-0.031492	1.012924
	H346	H	1.192325	-0.044137	1.005574
	H347	H	1.190348	-0.009372	1.018665
	O348	O	0.995956	1.065620	0.041021
	H349	H	0.999018	1.053046	0.053905
	H350	H	1.004383	1.068149	0.043703
	O351	O	0.366260	0.583314	0.487800
	H352	H	0.362742	0.580452	0.486051
	H353	H	0.366613	0.587354	0.476709
	O354	O	0.963497	0.024512	1.124915
	H355	H	0.979350	0.016117	1.120288
	H356	H	0.973625	0.026409	1.128958
	O357	O	0.548691	0.564375	0.491543
	H358	H	0.550514	0.560441	0.492668
	H359	H	0.559249	0.547853	0.492869
	O360	O	0.343890	0.300685	0.487861
	H361	H	0.333482	0.288003	0.501500
	H362	H	0.341954	0.308948	0.506877
	O363	O	-0.085426	0.852583	1.039628
	H364	H	-0.090675	0.854167	1.023479
	H365	H	-0.098892	0.841245	1.047524
	O366	O	0.561423	0.634498	0.589046
	H367	H	0.571928	0.632378	0.582444
	H368	H	0.560775	0.634421	0.592317
	O369	O	0.114831	0.947244	0.016197
	H370	H	0.117752	0.929834	0.029177
	H371	H	0.111227	0.947835	0.012080
	O372	O	0.609445	0.420828	0.587947
	H373	H	0.631712	0.411204	0.581124
	H374	H	0.601520	0.418344	0.583702
	O375	O	0.390139	0.651241	0.442184
	H376	H	0.386865	0.636426	0.439245
	H377	H	0.398757	0.651859	0.452285
	O378	O	0.928790	0.895625	-0.080053
	H379	H	0.941333	0.897044	-0.081039
	H380	H	0.930224	0.904411	-0.057941
	O381	O	0.988627	-0.079081	-0.144851
	H382	H	1.010964	-0.072881	-0.151399
	H383	H	0.991568	-0.082033	-0.140353
	O384	O	1.097863	0.928085	0.034850
	H385	H	1.098853	0.914233	0.030696
	H386	H	1.095873	0.931673	0.042919
	O387	O	-0.094156	-0.088638	-0.009727
	H388	H	-0.085042	-0.083601	-0.009404
	H389	H	-0.091937	-0.077542	-0.004810
	O390	O	-0.170194	1.140844	-0.136107
	H391	H	-0.159370	1.134599	-0.144976
	H392	H	-0.167497	1.122510	-0.127368
	O393	O	1.013885	1.013652	0.866830
	H394	H	1.003531	1.008480	0.860287
	H395	H	1.018174	1.014294	0.881585
	O396	O	0.581548	0.393277	0.578146
	H397	H	0.584432	0.402293	0.584080
	H398	H	0.601209	0.374850	0.583992
	O399	O	0.079035	0.987701	1.171196
	H400	H	0.078930	0.983733	1.185998
	H401	H	0.066866	0.983464	1.170294
	O402	O	0.379846	0.355640	0.639085
	H403	H	0.374638	0.357665	0.635949
	H404	H	0.385740	0.346320	0.651648
	O405	O	0.917384	0.870268	0.037587
	H406	H	0.920848	0.888034	0.040438
	H407	H	0.908811	0.871286	0.037248
	O408	O	1.001021	1.006063	0.088561
	H409	H	0.998534	0.999513	0.099331
	H410	H	1.008114	1.003382	0.090299
	O411	O	0.871916	0.110652	1.088474
	H412	H	0.882582	0.116035	1.077852
	H413	H	0.876104	0.117052	1.079218
	O414	O	0.476645	0.576617	0.491004
	H415	H	0.491351	0.579636	0.502522
	H416	H	0.483605	0.585086	0.498082
	O417	O	0.583993	0.436188	0.493086
	H418	H	0.564306	0.433643	0.508303
	H419	H	0.596898	0.421562	0.482326
