data_Molecule from HDF5

_cell_length_a		16.577896
_cell_length_b		16.580361
_cell_length_c		16.532283
_cell_angle_alpha	90.031236
_cell_angle_beta	89.958282
_cell_angle_gamma	90.008728
_symmetry_space_group_name_H-M	'P 1'
_symmetry_Int_Tables_number		1

loop_
	_symmetry_equiv_pos_as_xyz
	x,y,z

loop_
	_atom_site_label
	_atom_site_type_symbol
	_atom_site_fract_x
	_atom_site_fract_y
	_atom_site_fract_z
	H0	H	0.385759	0.839728	0.696603
	H1	H	0.588132	0.155706	0.698699
	H2	H	0.589749	0.841002	0.258642
	H3	H	0.383126	0.154957	0.260340
	H4	H	0.704732	0.394323	0.822446
	H5	H	0.706731	0.603715	0.136513
	H6	H	0.264707	0.603548	0.823909
	H7	H	0.263479	0.393492	0.135788
	H8	H	0.828880	0.718877	0.374187
	H9	H	0.143397	0.716731	0.581884
	H10	H	0.830539	0.274009	0.585659
	H11	H	0.141607	0.274868	0.371133
	H12	H	0.830064	0.390797	0.701959
	H13	H	0.142503	0.600124	0.698609
	H14	H	0.828371	0.601950	0.258809
	H15	H	0.141301	0.392259	0.255725
	H16	H	0.383281	0.718391	0.822807
	H17	H	0.589957	0.719053	0.137879
	H18	H	0.590557	0.276502	0.824268
	H19	H	0.379399	0.276324	0.135448
	H20	H	0.707031	0.841284	0.374746
	H21	H	0.706116	0.154797	0.582783
	H22	H	0.267884	0.840164	0.581292
	H23	H	0.266632	0.155340	0.376081
	H24	H	0.879525	0.341724	0.201080
	H25	H	0.088525	0.655874	0.199616
	H26	H	0.092151	0.342635	0.756445
	H27	H	0.882571	0.654658	0.759057
	H28	H	0.205608	0.894873	0.321184
	H29	H	0.203553	0.098822	0.637017
	H30	H	0.763280	0.104580	0.322729
	H31	H	0.765709	0.894004	0.635550
	H32	H	0.329562	0.219853	0.875286
	H33	H	0.640668	0.223387	0.087977
	H34	H	0.329281	0.777217	0.085266
	H35	H	0.641358	0.776428	0.873671
	H36	H	0.329264	0.893904	0.201296
	H37	H	0.641680	0.105347	0.203034
	H38	H	0.328834	0.102516	0.759486
	H39	H	0.641176	0.892507	0.757247
	H40	H	0.879201	0.220856	0.323179
	H41	H	0.088886	0.217040	0.636445
	H42	H	0.090110	0.777144	0.321209
	H43	H	0.883283	0.778189	0.636379
	H44	H	0.209256	0.343995	0.872147
	H45	H	0.206856	0.655021	0.085087
	H46	H	0.761979	0.342147	0.085991
	H47	H	0.765050	0.654516	0.874552
	H48	H	0.390440	0.112965	0.572776
	H49	H	0.575945	0.888436	0.561400
	H50	H	0.577108	0.110098	0.392320
	H51	H	0.393889	0.884874	0.389754
	H52	H	0.579128	0.409756	0.094479
	H53	H	0.574551	0.595746	0.865533
	H54	H	0.393279	0.587133	0.093958
	H55	H	0.401522	0.406044	0.867237
	H56	H	0.097646	0.587063	0.388213
	H57	H	0.872834	0.589958	0.568992
	H58	H	0.097426	0.408141	0.566243
	H59	H	0.876543	0.408781	0.397390
	H60	H	0.097183	0.409662	0.567681
	H61	H	0.873936	0.586964	0.566612
	H62	H	0.098484	0.587675	0.388727
	H63	H	0.874903	0.414090	0.388396
	H64	H	0.398466	0.584387	0.090898
	H65	H	0.581898	0.585705	0.865257
	H66	H	0.572013	0.417729	0.089516
	H67	H	0.392276	0.410790	0.865425
	H68	H	0.574191	0.110800	0.388177
	H69	H	0.583292	0.883194	0.572223
	H70	H	0.398966	0.110639	0.572421
	H71	H	0.397216	0.885072	0.388354
	H72	H	0.899587	0.609556	0.071264
	H73	H	0.077411	0.386455	0.067415
	H74	H	0.070958	0.608438	0.893140
	H75	H	0.890432	0.384763	0.894198
	H76	H	0.077252	0.907097	0.591347
	H77	H	0.073954	0.093902	0.363839
	H78	H	0.899617	0.082173	0.588617
	H79	H	0.895890	0.908942	0.365922
	H80	H	0.596434	0.086003	0.892934
	H81	H	0.376091	0.085629	0.066908
	H82	H	0.596299	0.909245	0.066347
	H83	H	0.373036	0.909113	0.887596
	H84	H	0.597520	0.910928	0.070739
	H85	H	0.374525	0.085149	0.070836
	H86	H	0.598243	0.086422	0.888752
	H87	H	0.372251	0.905359	0.889946
	H88	H	0.900166	0.089793	0.590938
	H89	H	0.082346	0.083459	0.365265
	H90	H	0.076134	0.904940	0.591982
	H91	H	0.898037	0.910620	0.367194
	H92	H	0.077755	0.609831	0.892008
	H93	H	0.072074	0.386083	0.069311
	H94	H	0.894955	0.608695	0.064327
	H95	H	0.895563	0.383851	0.884593
	H96	H	0.394140	0.109801	0.565313
	H97	H	0.569331	0.886718	0.574131
	H98	H	0.572413	0.108549	0.392857
	H99	H	0.396389	0.885750	0.391728
	H100	H	0.567954	0.407281	0.092098
	H101	H	0.570375	0.585263	0.870026
	H102	H	0.399006	0.590914	0.092928
	H103	H	0.399386	0.415646	0.870867
	H104	H	0.096809	0.587367	0.388892
	H105	H	0.873884	0.586036	0.570105
	H106	H	0.097569	0.407640	0.568153
	H107	H	0.872092	0.404014	0.389151
	H108	H	0.891625	0.612245	0.071099
	H109	H	0.072981	0.388581	0.064374
	H110	H	0.073150	0.610835	0.887058
	H111	H	0.900696	0.388620	0.893438
	H112	H	0.077892	0.905562	0.592810
	H113	H	0.069879	0.082739	0.369593
	H114	H	0.893467	0.086131	0.591738
	H115	H	0.898568	0.907260	0.366687
	H116	H	0.598426	0.090192	0.891575
	H117	H	0.373685	0.088787	0.068947
	H118	H	0.599298	0.906248	0.068989
	H119	H	0.374043	0.908892	0.891895
	C120	C	0.364405	0.006492	0.600594
	C121	C	0.607607	0.989988	0.600789
	C122	C	0.606717	0.006160	0.358387
	C123	C	0.364371	0.989193	0.358108
	C124	C	0.605592	0.378628	-0.011633
	C125	C	0.607280	0.620543	0.971208
	C126	C	0.365078	0.619621	-0.011159
	C127	C	0.364511	0.377908	0.971164
	C128	C	-0.006041	0.619032	0.357558
	C129	C	0.977447	0.618682	0.599905
	C130	C	-0.005800	0.376039	0.600258
	C131	C	0.977458	0.376194	0.358042
	C132	C	0.863105	0.506496	0.101309
	C133	C	0.106544	0.490301	0.100316
	C134	C	0.106855	0.506964	0.857910
	C135	C	0.863857	0.489199	0.858224
	C136	C	0.108140	0.875089	0.487625
	C137	C	0.106554	0.118281	0.470524
	C138	C	0.864686	0.119190	0.487368
	C139	C	0.865153	0.876920	0.470382
	C140	C	0.494233	0.119327	0.858970
	C141	C	0.477570	0.120276	0.101889
	C142	C	0.494099	0.877136	0.100999
	C143	C	0.476764	0.876615	0.857988
	C144	C	0.365656	0.887329	0.657711
	C145	C	0.607981	0.108231	0.659614
	C146	C	0.608399	0.887971	0.298630
	C147	C	0.364110	0.107895	0.299843
	C148	C	0.665208	0.375952	0.869944
	C149	C	0.666763	0.622094	0.089581
	C150	C	0.305320	0.621776	0.870555
	C151	C	0.303727	0.375234	0.088712
	C152	C	0.875936	0.678534	0.355841
	C153	C	0.095968	0.677231	0.600884
	C154	C	0.876980	0.315093	0.603419
	C155	C	0.094755	0.315303	0.354007
	C156	C	0.876899	0.372889	0.661312
	C157	C	0.095678	0.619390	0.658945
	C158	C	0.875665	0.620667	0.297987
	C159	C	0.094603	0.373563	0.296486
	C160	C	0.363843	0.678828	0.870059
	C161	C	0.608520	0.679370	0.090194
	C162	C	0.608340	0.317607	0.870616
	C163	C	0.361168	0.316982	0.088720
	C164	C	0.666568	0.888104	0.356334
	C165	C	0.666342	0.107925	0.601940
	C166	C	0.306996	0.887592	0.600596
	C167	C	0.306084	0.107944	0.357265
	C168	C	0.860920	0.388664	0.161297
	C169	C	0.107911	0.608389	0.160099
	C170	C	0.110345	0.389667	0.796868
	C171	C	0.863106	0.607475	0.798659
	C172	C	0.166528	0.874924	0.368581
	C173	C	0.164615	0.118608	0.589608
	C174	C	0.803791	0.122456	0.369678
	C175	C	0.805724	0.875354	0.588770
	C176	C	0.376340	0.179214	0.857125
	C177	C	0.594150	0.182295	0.105678
	C178	C	0.376070	0.817410	0.103297
	C179	C	0.594402	0.816664	0.855551
	C180	C	0.376163	0.875292	0.161029
	C181	C	0.594746	0.123646	0.162855
	C182	C	0.376090	0.120913	0.799486
	C183	C	0.594635	0.874642	0.797908
	C184	C	0.861138	0.180588	0.370056
	C185	C	0.107477	0.176981	0.589441
	C186	C	0.109134	0.816736	0.368633
	C187	C	0.864139	0.818157	0.589126
	C188	C	0.168511	0.390321	0.854414
	C189	C	0.166628	0.608114	0.102953
	C190	C	0.802487	0.389141	0.104010
	C191	C	0.804776	0.607427	0.856231
	C192	C	0.387659	0.089531	0.577117
	C193	C	0.583372	0.907402	0.576152
	C194	C	0.581705	0.088306	0.383713
	C195	C	0.388748	0.906779	0.382862
	C196	C	0.580342	0.404162	0.070570
	C197	C	0.582804	0.596121	0.888457
	C198	C	0.389913	0.594718	0.071180
	C199	C	0.390351	0.403427	0.889022
	C200	C	0.076248	0.594267	0.381619
	C201	C	0.895079	0.594380	0.575593
	C202	C	0.076216	0.401305	0.574617
	C203	C	0.895971	0.401660	0.384204
	C204	C	0.888224	0.588806	0.075993
	C205	C	0.081484	0.408436	0.074464
	C206	C	0.081149	0.588552	0.883420
	C207	C	0.888438	0.407136	0.883500
	C208	C	0.084060	0.899086	0.570517
	C209	C	0.082254	0.093889	0.387754
	C210	C	0.890338	0.093178	0.569170
	C211	C	0.890202	0.901698	0.388035
	C212	C	0.576315	0.094456	0.883834
	C213	C	0.396009	0.094012	0.075990
	C214	C	0.576165	0.901743	0.075803
	C215	C	0.394505	0.901087	0.882576
	Zn216	Zn	0.485979	-0.001520	0.729511
	Zn217	Zn	0.485907	-0.001749	0.229616
	Zn218	Zn	0.734716	0.498170	-0.020292
	Zn219	Zn	0.235778	0.499029	-0.020857
	Zn220	Zn	-0.014105	0.747860	0.478485
	Zn221	Zn	-0.013794	0.247046	0.478907
	Zn222	Zn	-0.014337	0.497497	0.729296
	Zn223	Zn	-0.014811	0.497535	0.228906
	Zn224	Zn	0.485718	0.748503	-0.019922
	Zn225	Zn	0.485822	0.248783	-0.019823
	Zn226	Zn	0.736410	-0.001797	0.478755
	Zn227	Zn	0.235496	-0.002069	0.479006
	N228	N	0.400222	0.962536	0.658249
	N229	N	0.572498	0.033535	0.659239
	N230	N	0.572063	0.962450	0.299829
	N231	N	0.399366	0.032961	0.300025
	N232	N	0.663646	0.413111	0.944159
	N233	N	0.666361	0.586606	0.014472
	N234	N	0.305793	0.585844	0.945374
	N235	N	0.305603	0.412286	0.014490
	N236	N	0.950318	0.677780	0.392039
	N237	N	0.021371	0.677257	0.565183
	N238	N	0.950899	0.317008	0.566039
	N239	N	0.020825	0.316639	0.391446
	N240	N	0.950997	0.409986	0.659622
	N241	N	0.020911	0.583811	0.658628
	N242	N	0.950127	0.584343	0.298871
	N243	N	0.020750	0.410789	0.298851
	N244	N	0.400085	0.677694	0.944560
	N245	N	0.572488	0.678880	0.015376
	N246	N	0.572086	0.318825	0.945369
	N247	N	0.398069	0.318460	0.014410
	N248	N	0.665644	0.962657	0.392651
	N249	N	0.666247	0.033287	0.566171
	N250	N	0.305794	0.962810	0.566096
	N251	N	0.306100	0.033111	0.392891
	N252	N	0.897773	0.462823	0.159764
	N253	N	0.071151	0.534129	0.158423
	N254	N	0.072745	0.463238	0.798903
	N255	N	0.899194	0.532832	0.799607
	N256	N	0.166263	0.910311	0.443703
	N257	N	0.164348	0.083094	0.514660
	N258	N	0.805769	0.085076	0.443801
	N259	N	0.806266	0.911263	0.513889
	N260	N	0.450757	0.178476	0.893428
	N261	N	0.520297	0.180139	0.068372
	N262	N	0.450346	0.818593	0.066521
	N263	N	0.520118	0.817735	0.892259
	N264	N	0.450479	0.911708	0.159793
	N265	N	0.521246	0.085577	0.160421
	N266	N	0.450391	0.084465	0.800424
	N267	N	0.520486	0.911241	0.799148
	N268	N	0.898321	0.178644	0.444187
	N269	N	0.072448	0.177127	0.514203
	N270	N	0.073953	0.816336	0.443844
	N271	N	0.900166	0.818891	0.514329
	N272	N	0.166441	0.464255	0.891723
	N273	N	0.166042	0.533563	0.066670
	N274	N	0.803790	0.463502	0.067330
	N275	N	0.804953	0.532919	0.892200
	O276	O	-0.019917	0.846595	0.190008
	H277	H	-0.011148	0.854555	0.179633
	H278	H	-0.017802	0.816496	0.195472
	O279	O	0.454836	0.707436	0.270917
	H280	H	0.466815	0.723708	0.262017
	H281	H	0.443587	0.708441	0.285830
	O282	O	0.867560	-0.099941	0.796539
	H283	H	0.874772	-0.099563	0.805251
	H284	H	0.884754	-0.088106	0.800953
	O285	O	0.694888	0.498904	0.269822
	H286	H	0.686089	0.521867	0.282683
	H287	H	0.714855	0.502101	0.264763
	O288	O	0.425341	0.446115	0.434635
	H289	H	0.422928	0.438425	0.440638
	H290	H	0.421934	0.446250	0.431287
	O291	O	0.320118	0.502068	0.483153
	H292	H	0.321099	0.496175	0.486546
	H293	H	0.316774	0.499212	0.494143
	O294	O	1.060584	-0.185351	1.069987
	H295	H	1.055082	-0.165867	1.059365
	H296	H	1.064387	-0.178687	1.058276
	O297	O	0.596113	0.493414	0.453806
	H298	H	0.586897	0.494798	0.468749
	H299	H	0.586786	0.481053	0.461484
	O300	O	-0.421766	0.511878	0.589819
	H301	H	-0.421225	0.503438	0.606465
	H302	H	-0.430866	0.514689	0.596930
	O303	O	0.171667	0.187447	0.791980
	H304	H	0.158117	0.178433	0.812791
	H305	H	0.148122	0.174370	0.809646
	O306	O	1.001800	0.026768	0.944578
	H307	H	1.005648	0.031718	0.943281
	H308	H	0.994131	0.016392	0.942329
	O309	O	0.445542	0.290010	0.691034
	H310	H	0.423690	0.291368	0.678861
	H311	H	0.441945	0.269281	0.703294
	O312	O	0.708174	0.628710	0.512329
	H313	H	0.710617	0.630471	0.537796
	H314	H	0.715976	0.644734	0.530622
	O315	O	0.546678	1.718827	0.429942
	H316	H	0.557332	1.717447	0.439385
	H317	H	0.552608	1.715605	0.444342
	O318	O	0.517706	0.419222	0.514377
	H319	H	0.504622	0.417386	0.520203
	H320	H	0.513369	0.414119	0.506994
	O321	O	0.455166	0.317406	0.521183
	H322	H	0.462896	0.327959	0.512771
	H323	H	0.463658	0.313843	0.506467
	O324	O	0.978434	1.214276	-0.082963
	H325	H	0.969104	1.207763	-0.061547
	H326	H	0.976570	1.213174	-0.085119
	O327	O	-0.016630	-0.010446	1.052846
	H328	H	-0.015209	-0.001712	1.065627
	H329	H	-0.006612	-0.009788	1.056156
	O330	O	0.397625	0.295778	0.388275
	H331	H	0.406438	0.292144	0.390680
	H332	H	0.410853	0.305564	0.389264
	O333	O	0.055242	-0.120486	1.039867
	H334	H	0.033773	-0.119100	1.034144
	H335	H	0.065784	-0.120028	1.049009
	O336	O	0.777635	0.209530	0.773360
	H337	H	0.764632	0.207292	0.769304
	H338	H	0.779477	0.194016	0.774914
	O339	O	0.963591	-0.015624	1.149248
	H340	H	0.972586	-0.027617	1.152912
	H341	H	0.953914	-0.002514	1.137523
	O342	O	-0.008654	0.171513	0.188105
	H343	H	-0.013071	0.173993	0.197596
	H344	H	-0.010546	0.164925	0.198175
	O345	O	-0.229302	0.963522	1.196699
	H346	H	-0.234230	0.948765	1.206555
	H347	H	-0.242700	0.965401	1.203796
	O348	O	0.290800	0.462492	0.672822
	H349	H	0.287017	0.437286	0.678315
	H350	H	0.277611	0.454574	0.676593
	O351	O	1.112052	0.869984	0.119342
	H352	H	1.110973	0.862099	0.117436
	H353	H	1.108251	0.868778	0.117625
	O354	O	0.046238	0.080764	0.957042
	H355	H	0.039269	0.081835	0.951521
	H356	H	0.045247	0.079521	0.963705
	O357	O	1.198593	1.208236	0.187543
	H358	H	1.174105	1.196854	0.179653
	H359	H	1.208679	1.193952	0.187804
	O360	O	0.299554	0.401521	0.518977
	H361	H	0.296847	0.396648	0.506416
	H362	H	0.308059	0.396823	0.505761
	O363	O	-0.231461	-0.214352	0.003753
	H364	H	-0.232487	-0.209868	0.005337
	H365	H	-0.244884	-0.230888	0.024680
	O366	O	0.691744	0.599829	0.384252
	H367	H	0.690612	0.610412	0.405709
	H368	H	0.677266	0.579677	0.390827
	O369	O	0.776912	-0.052247	0.086873
	H370	H	0.774102	-0.025597	0.099234
	H371	H	0.771480	-0.054685	0.096930
	O372	O	0.759911	0.944872	-0.074743
	H373	H	0.757590	0.928433	-0.058498
	H374	H	0.756468	0.962778	-0.062067
	O375	O	0.921979	0.214445	0.044241
	H376	H	0.921260	0.205110	0.047687
	H377	H	0.919093	0.218157	0.049617
	O378	O	-0.150013	0.795474	0.854459
	H379	H	-0.151856	0.811305	0.866319
	H380	H	-0.130605	0.798020	0.879726
	O381	O	0.285645	0.701308	1.271398
	H382	H	0.311484	0.679780	1.266344
	H383	H	0.271263	0.698359	1.269769
	O384	O	0.813008	0.143356	1.079568
	H385	H	0.823176	0.149974	1.083337
	H386	H	0.819012	0.152833	1.077481
	O387	O	1.203037	0.780778	-0.052164
	H388	H	1.202407	0.783909	-0.086600
	H389	H	1.226129	0.760911	-0.068758
	O390	O	0.496053	0.290247	0.282130
	H391	H	0.512708	0.295711	0.280824
	H392	H	0.512748	0.280643	0.267250
	O393	O	0.579079	0.362989	0.605264
	H394	H	0.575827	0.356635	0.608393
	H395	H	0.584837	0.370940	0.596992
	O396	O	0.695140	1.379187	1.584468
	H397	H	0.673609	1.393292	1.569830
	H398	H	0.703097	1.392691	1.588965
	O399	O	0.128883	0.032758	1.122952
	H400	H	0.137738	0.027667	1.128365
	H401	H	0.139235	0.019132	1.124887
	O402	O	0.698554	0.287329	0.434418
	H403	H	0.711416	0.284230	0.429619
	H404	H	0.710467	0.292010	0.448164
	O405	O	0.982094	0.134214	0.771349
	H406	H	0.976419	0.149191	0.755562
	H407	H	0.966905	0.133696	0.783581
	O408	O	-0.021623	-0.202036	-0.061898
	H409	H	-0.014805	-0.199838	-0.051973
	H410	H	-0.012543	-0.203439	-0.059711
	O411	O	0.485821	0.529579	0.282790
	H412	H	0.484823	0.524265	0.297305
	H413	H	0.469947	0.534988	0.276622
	O414	O	0.906667	0.084832	1.102695
	H415	H	0.912323	0.072473	1.093086
	H416	H	0.899621	0.079408	1.090453
	O417	O	0.696188	0.699589	0.682141
	H418	H	0.720940	0.732845	0.709866
	H419	H	0.649520	0.699813	0.687177
	O420	O	0.298014	0.686399	0.669044
	H421	H	0.313472	0.686023	0.635880
	H422	H	0.319712	0.653310	0.670095
	O423	O	0.286175	0.380895	1.351620
	H424	H	0.275022	0.379108	1.349175
	H425	H	0.295491	0.364775	1.355848
	O426	O	0.529439	0.711236	0.684882
	H427	H	0.514383	0.706156	0.691563
	H428	H	0.510253	0.717889	0.684115
	O429	O	0.728727	0.736778	1.217646
	H430	H	0.744900	0.718563	1.232951
	H431	H	0.708079	0.726400	1.219926
	O432	O	0.503620	0.607734	0.622129
	H433	H	0.502298	0.592194	0.636110
	H434	H	0.505398	0.597287	0.621065
	O435	O	0.145213	0.943581	-0.030851
	H436	H	0.157864	0.942520	-0.052882
	H437	H	0.147531	0.927510	-0.021333
	O438	O	0.015040	-0.198402	-0.239385
	H439	H	0.010540	-0.214096	-0.256905
	H440	H	0.000307	-0.190503	-0.235519
	O441	O	0.696354	0.521427	0.696768
	H442	H	0.722122	0.527340	0.721544
	H443	H	0.691307	0.555649	0.697974
	O444	O	0.676439	0.327451	0.275295
	H445	H	0.682222	0.339649	0.291818
	H446	H	0.676022	0.351954	0.282777
	O447	O	-0.237042	1.033312	0.761987
	H448	H	-0.250855	1.024363	0.756315
	H449	H	-0.248665	1.028359	0.764133
	O450	O	0.265302	0.718193	1.448088
	H451	H	0.234924	0.734823	1.444477
	H452	H	0.269482	0.715713	1.413993
	O453	O	0.450777	0.499763	0.266176
	H454	H	0.449731	0.492948	0.260478
	H455	H	0.449118	0.508619	0.265281
	O456	O	-0.023844	0.056701	0.847332
	H457	H	-0.028714	0.078189	0.858612
	H458	H	-0.030882	0.065416	0.848574
	O459	O	0.775023	1.209194	-0.050566
	H460	H	0.759571	1.229172	-0.059797
	H461	H	0.790278	1.204405	-0.047944
	O462	O	0.358053	0.375691	0.458781
	H463	H	0.365880	0.380312	0.467507
	H464	H	0.347939	0.362933	0.452712
	O465	O	0.285210	-0.454234	-0.722471
	H466	H	0.274808	-0.465457	-0.726510
	H467	H	0.284285	-0.459791	-0.728962
	O468	O	0.417581	0.703720	0.522053
	H469	H	0.411574	0.712159	0.508251
	H470	H	0.415776	0.691520	0.496771
	O471	O	0.274544	0.291025	0.688650
	H472	H	0.266881	0.267462	0.709762
	H473	H	0.262373	0.282690	0.661881
	O474	O	0.198427	0.789834	0.773418
	H475	H	0.226987	0.763053	0.740903
	H476	H	0.158157	0.795749	0.764489
	O477	O	1.094325	0.057432	0.831607
	H478	H	1.085645	0.066280	0.832555
	H479	H	1.109630	0.067819	0.824857
	O480	O	0.486017	0.514815	0.712008
	H481	H	0.496308	0.501895	0.715923
	H482	H	0.490878	0.502623	0.720256
	O483	O	1.198476	1.003459	1.091541
	H484	H	1.190942	0.978005	1.076493
	H485	H	1.211436	1.004980	1.093827
	O486	O	1.209390	-0.039698	0.759315
	H487	H	1.222773	-0.054811	0.746655
	H488	H	1.216633	-0.050296	0.754118
	O489	O	1.203434	1.216683	0.010166
	H490	H	1.220436	1.230401	0.011508
	H491	H	1.196711	1.223134	0.018488
