data_Molecule from HDF5

_cell_length_a		16.425641
_cell_length_b		15.934891
_cell_length_c		16.396827
_cell_angle_alpha	90.140748
_cell_angle_beta	89.925752
_cell_angle_gamma	89.633013
_symmetry_space_group_name_H-M	'P 1'
_symmetry_Int_Tables_number		1

loop_
	_symmetry_equiv_pos_as_xyz
	x,y,z

loop_
	_atom_site_label
	_atom_site_type_symbol
	_atom_site_fract_x
	_atom_site_fract_y
	_atom_site_fract_z
	H0	H	0.401224	0.835085	0.710601
	H1	H	0.598297	0.166833	0.709868
	H2	H	0.602497	0.835215	0.278334
	H3	H	0.397793	0.167274	0.279850
	H4	H	0.721605	0.393151	0.835070
	H5	H	0.719035	0.608149	0.154124
	H6	H	0.279444	0.605099	0.833677
	H7	H	0.278863	0.396184	0.154131
	H8	H	0.838529	0.717438	0.397264
	H9	H	0.163436	0.711792	0.591343
	H10	H	0.836855	0.289272	0.590872
	H11	H	0.162274	0.284471	0.397411
	H12	H	0.838697	0.398141	0.712734
	H13	H	0.159752	0.602893	0.714095
	H14	H	0.840091	0.607069	0.276061
	H15	H	0.158802	0.392369	0.273693
	H16	H	0.402726	0.713144	0.831118
	H17	H	0.594392	0.713326	0.157739
	H18	H	0.597208	0.286748	0.831339
	H19	H	0.403687	0.288643	0.157711
	H20	H	0.716713	0.834715	0.392912
	H21	H	0.714273	0.166162	0.597128
	H22	H	0.288120	0.833668	0.594194
	H23	H	0.283810	0.167019	0.396341
	H24	H	0.897593	0.334956	0.211739
	H25	H	0.100833	0.665125	0.212185
	H26	H	0.098233	0.334087	0.780110
	H27	H	0.897654	0.666637	0.780196
	H28	H	0.223733	0.891559	0.335748
	H29	H	0.218441	0.104940	0.656124
	H30	H	0.776961	0.107920	0.336448
	H31	H	0.780726	0.895206	0.655165
	H32	H	0.337965	0.215810	0.896408
	H33	H	0.662195	0.213810	0.091637
	H34	H	0.336738	0.787878	0.093081
	H35	H	0.661718	0.782316	0.895948
	H36	H	0.341084	0.895105	0.217138
	H37	H	0.658495	0.108783	0.216862
	H38	H	0.340301	0.106859	0.776672
	H39	H	0.659634	0.892215	0.773700
	H40	H	0.901388	0.215361	0.332395
	H41	H	0.094466	0.212063	0.658768
	H42	H	0.100169	0.784092	0.332803
	H43	H	0.905706	0.789449	0.658756
	H44	H	0.216078	0.334949	0.891853
	H45	H	0.212919	0.665950	0.096015
	H46	H	0.783731	0.334783	0.095867
	H47	H	0.781711	0.665885	0.893022
	H48	H	0.411161	0.120466	0.594954
	H49	H	0.588846	0.879781	0.592276
	H50	H	0.592598	0.117990	0.409490
	H51	H	0.403248	0.878227	0.396666
	H52	H	0.592579	0.419604	0.106480
	H53	H	0.586291	0.592114	0.880549
	H54	H	0.402819	0.588925	0.108780
	H55	H	0.408141	0.408306	0.878922
	H56	H	0.112734	0.588923	0.410564
	H57	H	0.884854	0.591634	0.588816
	H58	H	0.114341	0.412402	0.592385
	H59	H	0.880481	0.404160	0.393823
	H60	H	0.117697	0.402960	0.592930
	H61	H	0.883501	0.593952	0.590888
	H62	H	0.113466	0.580637	0.398085
	H63	H	0.886030	0.406005	0.411740
	H64	H	0.405524	0.594238	0.110265
	H65	H	0.596690	0.591421	0.877438
	H66	H	0.584843	0.403690	0.109334
	H67	H	0.403035	0.409878	0.878140
	H68	H	0.590613	0.120163	0.401179
	H69	H	0.587189	0.885024	0.580656
	H70	H	0.412076	0.115316	0.580352
	H71	H	0.424389	0.886705	0.400571
	H72	H	0.914484	0.615730	0.085446
	H73	H	0.089922	0.381951	0.086392
	H74	H	0.085032	0.617341	0.902807
	H75	H	0.919788	0.386298	0.904345
	H76	H	0.105232	0.912951	0.611965
	H77	H	0.094622	0.089289	0.379949
	H78	H	0.902960	0.098385	0.613835
	H79	H	0.907329	0.906646	0.378341
	H80	H	0.617560	0.095675	0.900900
	H81	H	0.385582	0.088351	0.087441
	H82	H	0.615482	0.907631	0.089955
	H83	H	0.388367	0.915140	0.908278
	H84	H	0.613534	0.908286	0.083403
	H85	H	0.383195	0.092644	0.092731
	H86	H	0.614196	0.088635	0.905013
	H87	H	0.384966	0.915427	0.895092
	H88	H	0.900585	0.085346	0.609092
	H89	H	0.092411	0.088487	0.380367
	H90	H	0.088384	0.916525	0.605864
	H91	H	0.904092	0.913527	0.380044
	H92	H	0.089777	0.618238	0.908567
	H93	H	0.086994	0.383073	0.083241
	H94	H	0.905590	0.616911	0.080713
	H95	H	0.901687	0.383089	0.913454
	H96	H	0.399463	0.122067	0.585951
	H97	H	0.598094	0.880031	0.583475
	H98	H	0.583668	0.116411	0.407459
	H99	H	0.409277	0.885893	0.417634
	H100	H	0.602697	0.405852	0.113111
	H101	H	0.592105	0.582316	0.881893
	H102	H	0.399996	0.593386	0.111566
	H103	H	0.405868	0.413083	0.880846
	H104	H	0.117503	0.595701	0.398313
	H105	H	0.885093	0.594271	0.587302
	H106	H	0.114978	0.406560	0.584561
	H107	H	0.888001	0.421318	0.400181
	H108	H	0.906346	0.619977	0.090345
	H109	H	0.091840	0.381898	0.082127
	H110	H	0.091893	0.620661	0.901843
	H111	H	0.905174	0.377514	0.892903
	H112	H	0.093252	0.899682	0.612798
	H113	H	0.092894	0.090502	0.380161
	H114	H	0.912293	0.090733	0.608282
	H115	H	0.911307	0.912476	0.381373
	H116	H	0.616180	0.088378	0.896126
	H117	H	0.384099	0.095729	0.085601
	H118	H	0.613685	0.913187	0.087978
	H119	H	0.382469	0.903584	0.901985
	C120	C	0.378998	0.009607	0.616639
	C121	C	0.620285	0.991394	0.615767
	C122	C	0.620745	0.009193	0.374642
	C123	C	0.380069	0.992611	0.374578
	C124	C	0.622421	0.378526	0.002922
	C125	C	0.620560	0.620903	0.986028
	C126	C	0.374755	0.622940	0.003175
	C127	C	0.376872	0.379501	0.985925
	C128	C	0.008495	0.621285	0.373179
	C129	C	0.991308	0.622186	0.617569
	C130	C	0.008102	0.378643	0.617611
	C131	C	0.991420	0.378513	0.372588
	C132	C	0.878562	0.508654	0.115621
	C133	C	0.119562	0.491356	0.115134
	C134	C	0.119185	0.509209	0.874016
	C135	C	0.878445	0.491752	0.873899
	C136	C	0.124864	0.877968	0.503681
	C137	C	0.121848	0.120724	0.486921
	C138	C	0.875972	0.122743	0.504021
	C139	C	0.878805	0.879846	0.486568
	C140	C	0.509154	0.122125	0.872434
	C141	C	0.491069	0.122485	0.117045
	C142	C	0.507957	0.879192	0.117018
	C143	C	0.491718	0.878813	0.872166
	C144	C	0.380967	0.884697	0.672560
	C145	C	0.618572	0.116773	0.672088
	C146	C	0.621433	0.884884	0.316678
	C147	C	0.379128	0.117668	0.318474
	C148	C	0.680622	0.376650	0.882503
	C149	C	0.678397	0.624203	0.106763
	C150	C	0.318647	0.623319	0.881562
	C151	C	0.319099	0.378401	0.106746
	C152	C	0.887038	0.679489	0.375947
	C153	C	0.114197	0.675929	0.613722
	C154	C	0.885775	0.324908	0.613099
	C155	C	0.113074	0.321398	0.375354
	C156	C	0.886831	0.379536	0.673534
	C157	C	0.112310	0.621638	0.674459
	C158	C	0.887856	0.624419	0.315636
	C159	C	0.111460	0.375270	0.313834
	C160	C	0.380068	0.677293	0.880329
	C161	C	0.616741	0.676914	0.108598
	C162	C	0.619062	0.323086	0.880492
	C163	C	0.381552	0.325168	0.108486
	C164	C	0.678465	0.884690	0.373870
	C165	C	0.675942	0.116397	0.615669
	C166	C	0.324663	0.883950	0.614809
	C167	C	0.322297	0.117421	0.376345
	C168	C	0.878488	0.384393	0.172848
	C169	C	0.119349	0.615653	0.172938
	C170	C	0.118292	0.383936	0.817596
	C171	C	0.878110	0.616690	0.817763
	C172	C	0.182999	0.875025	0.383055
	C173	C	0.178676	0.122521	0.608128
	C174	C	0.817567	0.125129	0.383653
	C175	C	0.820696	0.877757	0.607479
	C176	C	0.387006	0.178966	0.875158
	C177	C	0.612899	0.177984	0.113743
	C178	C	0.385987	0.824154	0.114811
	C179	C	0.613052	0.820403	0.874820
	C180	C	0.388070	0.878158	0.176271
	C181	C	0.611454	0.125090	0.175654
	C182	C	0.388093	0.124340	0.815757
	C183	C	0.612119	0.875420	0.814089
	C184	C	0.879359	0.178831	0.381709
	C185	C	0.117011	0.175857	0.609575
	C186	C	0.121496	0.821447	0.381708
	C187	C	0.882832	0.824858	0.609240
	C188	C	0.176627	0.384362	0.873486
	C189	C	0.175194	0.616183	0.114975
	C190	C	0.822234	0.384181	0.114782
	C191	C	0.820336	0.616205	0.873929
	C192	C	0.401082	0.096697	0.593878
	C193	C	0.597982	0.904329	0.592325
	C194	C	0.596074	0.095945	0.398949
	C195	C	0.404971	0.905976	0.397947
	C196	C	0.599939	0.402572	0.087774
	C197	C	0.598022	0.595911	0.901875
	C198	C	0.396350	0.599247	0.088012
	C199	C	0.399117	0.403621	0.901277
	C200	C	0.092644	0.595833	0.395742
	C201	C	0.906503	0.599818	0.595428
	C202	C	0.093613	0.400826	0.596272
	C203	C	0.906700	0.403416	0.395362
	C204	C	0.901857	0.595275	0.092154
	C205	C	0.096191	0.404777	0.090964
	C206	C	0.095832	0.596091	0.897433
	C207	C	0.901924	0.404829	0.896797
	C208	C	0.102076	0.902490	0.588245
	C209	C	0.099928	0.096352	0.402107
	C210	C	0.898645	0.098833	0.588616
	C211	C	0.901111	0.903700	0.402024
	C212	C	0.593841	0.097979	0.894235
	C213	C	0.406493	0.098972	0.095057
	C214	C	0.592216	0.902801	0.093821
	C215	C	0.407311	0.904336	0.895032
	Zn216	Zn	0.500269	0.001166	0.743499
	Zn217	Zn	0.500625	0.001552	0.246274
	Zn218	Zn	0.751002	0.501195	-0.004933
	Zn219	Zn	0.246534	0.500473	-0.005830
	Zn220	Zn	0.000767	0.750728	0.495407
	Zn221	Zn	0.000012	0.250042	0.495264
	Zn222	Zn	-0.001069	0.500846	0.746667
	Zn223	Zn	-0.000941	0.500133	0.243408
	Zn224	Zn	0.499256	0.749641	-0.005127
	Zn225	Zn	0.500051	0.250498	-0.006100
	Zn226	Zn	0.747970	0.000001	0.495417
	Zn227	Zn	0.252405	0.000398	0.495304
	N228	N	0.413900	0.963758	0.673886
	N229	N	0.584668	0.038060	0.672461
	N230	N	0.586148	0.963463	0.317162
	N231	N	0.414136	0.038888	0.317028
	N232	N	0.682739	0.410506	0.959680
	N233	N	0.681003	0.590029	0.029751
	N234	N	0.314868	0.590485	0.958970
	N235	N	0.316107	0.411321	0.029371
	N236	N	0.963064	0.677798	0.410982
	N237	N	0.038135	0.676658	0.579049
	N238	N	0.962365	0.324129	0.579186
	N239	N	0.037194	0.323092	0.410880
	N240	N	0.964177	0.411919	0.676605
	N241	N	0.034923	0.589255	0.676912
	N242	N	0.964400	0.589036	0.313688
	N243	N	0.034570	0.409911	0.311920
	N244	N	0.414004	0.677383	0.956927
	N245	N	0.581180	0.674890	0.032640
	N246	N	0.583550	0.324052	0.956464
	N247	N	0.416576	0.325543	0.032265
	N248	N	0.678182	0.963255	0.409046
	N249	N	0.677361	0.037392	0.581581
	N250	N	0.322965	0.962833	0.580948
	N251	N	0.322715	0.038471	0.410206
	N252	N	0.912981	0.462815	0.173372
	N253	N	0.085341	0.537062	0.173125
	N254	N	0.083377	0.462517	0.817782
	N255	N	0.913555	0.538227	0.817530
	N256	N	0.185090	0.909546	0.459864
	N257	N	0.181662	0.088837	0.530844
	N258	N	0.815450	0.090931	0.460563
	N259	N	0.817972	0.910971	0.530227
	N260	N	0.463244	0.177835	0.909813
	N261	N	0.537228	0.176506	0.078087
	N262	N	0.461453	0.824657	0.078604
	N263	N	0.537092	0.822288	0.910195
	N264	N	0.465139	0.911521	0.177861
	N265	N	0.534569	0.091415	0.178125
	N266	N	0.464932	0.089897	0.813604
	N267	N	0.535579	0.910964	0.812388
	N268	N	0.915089	0.177503	0.457640
	N269	N	0.082208	0.174904	0.533298
	N270	N	0.086021	0.823013	0.457793
	N271	N	0.918330	0.825888	0.533186
	N272	N	0.177327	0.463324	0.907903
	N273	N	0.175764	0.537684	0.079713
	N274	N	0.822019	0.462613	0.080063
	N275	N	0.820425	0.537613	0.908209
	O276	O	0.083979	-0.134978	-0.187150
	H277	H	0.063189	-0.148483	-0.195918
	H278	H	0.078365	-0.135015	-0.187748
	O279	O	0.486447	0.580541	0.586900
	H280	H	0.499123	0.583343	0.583135
	H281	H	0.480442	0.594729	0.580893
	O282	O	1.010586	-0.048402	0.001968
	H283	H	1.017679	-0.033288	0.007999
	H284	H	1.010482	-0.068750	-0.004765
	O285	O	0.040077	1.141491	0.012377
	H286	H	0.039399	1.135925	-0.001747
	H287	H	0.032390	1.128330	0.014730
	O288	O	0.371103	0.516010	0.428844
	H289	H	0.366363	0.521865	0.427941
	H290	H	0.377326	0.510275	0.428702
	O291	O	0.469756	0.477172	0.494402
	H292	H	0.480645	0.471082	0.495325
	H293	H	0.461826	0.466246	0.502194
	O294	O	1.198509	1.008510	1.103886
	H295	H	1.203807	1.035884	1.109802
	H296	H	1.221292	0.999604	1.100125
	O297	O	0.521574	-0.559924	-0.593056
	H298	H	0.529557	-0.558528	-0.604397
	H299	H	0.524283	-0.568270	-0.614271
	O300	O	0.416130	0.468357	0.423361
	H301	H	0.416678	0.462192	0.416794
	H302	H	0.427026	0.469097	0.419341
	O303	O	0.119266	1.007140	0.991795
	H304	H	0.142523	1.001945	0.990985
	H305	H	0.121937	1.001160	0.993654
	O306	O	0.127579	1.161632	0.103866
	H307	H	0.121790	1.161476	0.093996
	H308	H	0.123674	1.168234	0.113393
	O309	O	1.027614	-0.075327	-0.064132
	H310	H	1.042680	-0.082270	-0.063961
	H311	H	1.018692	-0.071281	-0.081529
	O312	O	-0.166883	0.027053	1.066096
	H313	H	-0.166510	0.018504	1.060543
	H314	H	-0.173402	0.031309	1.064245
	O315	O	0.058993	0.831640	0.973036
	H316	H	0.057520	0.819808	0.962992
	H317	H	0.059985	0.825170	0.974684
	O318	O	0.520740	0.519533	0.622588
	H319	H	0.516051	0.524545	0.630811
	H320	H	0.522559	0.523670	0.612371
	O321	O	0.613391	0.594751	0.542371
	H322	H	0.609235	0.589369	0.556489
	H323	H	0.607543	0.600581	0.545879
	O324	O	0.603086	0.405200	0.326555
	H325	H	0.596251	0.420130	0.333876
	H326	H	0.608088	0.400838	0.317709
	O327	O	-0.085129	0.874053	1.151234
	H328	H	-0.062847	0.870819	1.164123
	H329	H	-0.084407	0.882377	1.138219
	O330	O	0.513957	0.459832	0.351733
	H331	H	0.515382	0.451722	0.349663
	H332	H	0.511567	0.465311	0.351009
	O333	O	-0.065336	1.090379	0.919176
	H334	H	-0.072730	1.081550	0.915994
	H335	H	-0.059565	1.104909	0.937722
	O336	O	0.952530	1.004943	1.079742
	H337	H	0.957237	1.010874	1.081986
	H338	H	0.953904	1.011781	1.061989
	O339	O	0.441437	0.479534	0.537532
	H340	H	0.438649	0.469467	0.537631
	H341	H	0.444791	0.485487	0.544442
	O342	O	0.959311	-0.142900	-0.139047
	H343	H	0.966240	-0.149625	-0.137845
	H344	H	0.941739	-0.129792	-0.145503
	O345	O	0.537452	0.550279	0.377788
	H346	H	0.534839	0.546095	0.372776
	H347	H	0.534696	0.543096	0.382911
	O348	O	1.146541	1.116849	0.953091
	H349	H	1.151877	1.126043	0.952717
	H350	H	1.148695	1.101504	0.951059
	O351	O	1.047806	1.118474	0.099850
	H352	H	1.039271	1.102388	0.093674
	H353	H	1.048888	1.116057	0.087795
	O354	O	0.618395	0.520677	0.429159
	H355	H	0.616192	0.518363	0.432555
	H356	H	0.622257	0.516702	0.425756
	O357	O	0.447273	0.508626	0.525310
	H358	H	0.456795	0.508660	0.514648
	H359	H	0.441709	0.507781	0.528455
	O360	O	0.001195	-0.053043	0.122231
	H361	H	0.012531	-0.042172	0.130691
	H362	H	-0.004949	-0.047553	0.120190
	O363	O	0.553220	0.514621	0.531058
	H364	H	0.553694	0.514931	0.525236
	H365	H	0.549676	0.507129	0.544336
	O366	O	-0.167488	0.078575	0.907477
	H367	H	-0.165750	0.083530	0.886046
	H368	H	-0.156055	0.100385	0.915212
	O369	O	0.615396	0.537575	0.507869
	H370	H	0.612899	0.536285	0.509128
	H371	H	0.625047	0.531262	0.499984
	O372	O	0.493285	0.594608	0.564434
	H373	H	0.504348	0.590551	0.561809
	H374	H	0.488237	0.608774	0.559492
	O375	O	0.375360	0.436230	0.625119
	H376	H	0.380093	0.438726	0.620644
	H377	H	0.370995	0.434140	0.633728
	O378	O	0.536897	0.481386	0.492259
	H379	H	0.532067	0.480568	0.478370
	H380	H	0.539969	0.490815	0.488067
	O381	O	0.602041	0.494997	0.548633
	H382	H	0.601431	0.487514	0.555344
	H383	H	0.604899	0.498366	0.539860
	O384	O	-0.162350	0.945831	0.131108
	H385	H	-0.144914	0.949246	0.128123
	H386	H	-0.177009	0.948567	0.129024
	O387	O	0.867342	0.126761	0.812203
	H388	H	0.887990	0.130639	0.813185
	H389	H	0.875392	0.145056	0.809112
	O390	O	-0.010510	1.118847	-0.106740
	H391	H	-0.017293	1.125220	-0.104010
	H392	H	0.003641	1.111955	-0.104267
	O393	O	0.955938	0.949025	-0.028821
	H394	H	0.950251	0.936822	0.007446
	H395	H	0.955064	0.956033	-0.037343
	O396	O	1.120223	-0.046279	0.948863
	H397	H	1.109778	-0.058749	0.943264
	H398	H	1.135356	-0.057313	0.944764
	O399	O	-0.012148	0.863704	1.028549
	H400	H	-0.014437	0.857880	1.039538
	H401	H	-0.022345	0.880875	1.042636
	O402	O	1.074721	1.093104	1.093160
	H403	H	1.065795	1.089299	1.091349
	H404	H	1.065647	1.082894	1.091831
	O405	O	0.441532	0.359716	0.571033
	H406	H	0.449494	0.356710	0.571904
	H407	H	0.446361	0.367887	0.571747
