data_Molecule from HDF5

_cell_length_a		16.288757
_cell_length_b		16.410187
_cell_length_c		16.123363
_cell_angle_alpha	89.798943
_cell_angle_beta	90.314160
_cell_angle_gamma	89.540142
_symmetry_space_group_name_H-M	'P 1'
_symmetry_Int_Tables_number		1

loop_
	_symmetry_equiv_pos_as_xyz
	x,y,z

loop_
	_atom_site_label
	_atom_site_type_symbol
	_atom_site_fract_x
	_atom_site_fract_y
	_atom_site_fract_z
	H0	H	0.400916	0.829936	0.712713
	H1	H	0.596288	0.154561	0.716824
	H2	H	0.595155	0.831671	0.285552
	H3	H	0.389668	0.153225	0.278682
	H4	H	0.715662	0.390845	0.837365
	H5	H	0.710793	0.589905	0.165372
	H6	H	0.280188	0.595801	0.835227
	H7	H	0.287926	0.396546	0.164969
	H8	H	0.835034	0.713938	0.394189
	H9	H	0.156609	0.714092	0.605973
	H10	H	0.835086	0.277034	0.604169
	H11	H	0.156667	0.272887	0.396349
	H12	H	0.834627	0.395369	0.716937
	H13	H	0.159986	0.593452	0.716527
	H14	H	0.835517	0.596224	0.280023
	H15	H	0.161438	0.396214	0.290125
	H16	H	0.394682	0.711121	0.834715
	H17	H	0.599441	0.709580	0.162773
	H18	H	0.600528	0.274864	0.835760
	H19	H	0.395245	0.275012	0.161258
	H20	H	0.717793	0.835241	0.394058
	H21	H	0.713939	0.154840	0.602923
	H22	H	0.278077	0.833103	0.603917
	H23	H	0.273915	0.152913	0.394242
	H24	H	0.901911	0.331203	0.216536
	H25	H	0.097023	0.655689	0.215794
	H26	H	0.099489	0.333082	0.783808
	H27	H	0.893753	0.655184	0.783047
	H28	H	0.212032	0.891354	0.335669
	H29	H	0.213499	0.094267	0.661505
	H30	H	0.778813	0.097185	0.334547
	H31	H	0.783414	0.897152	0.662653
	H32	H	0.336784	0.214929	0.891734
	H33	H	0.657542	0.210494	0.105019
	H34	H	0.335662	0.775259	0.100077
	H35	H	0.658845	0.773170	0.895105
	H36	H	0.333636	0.892576	0.214665
	H37	H	0.658135	0.092976	0.217788
	H38	H	0.333796	0.092241	0.783034
	H39	H	0.661232	0.894127	0.786715
	H40	H	0.891750	0.213933	0.336140
	H41	H	0.098518	0.210566	0.662240
	H42	H	0.096269	0.776538	0.336518
	H43	H	0.890655	0.776169	0.661119
	H44	H	0.218259	0.333591	0.896895
	H45	H	0.214049	0.655451	0.100038
	H46	H	0.780793	0.332077	0.105534
	H47	H	0.775247	0.653224	0.896903
	H48	H	0.397696	0.109597	0.587276
	H49	H	0.595763	0.877707	0.592786
	H50	H	0.583812	0.110818	0.399496
	H51	H	0.409161	0.878794	0.405500
	H52	H	0.585594	0.403667	0.114123
	H53	H	0.592392	0.585224	0.880982
	H54	H	0.409523	0.589761	0.116276
	H55	H	0.396496	0.405104	0.878823
	H56	H	0.110627	0.584558	0.414026
	H57	H	0.879509	0.586956	0.595835
	H58	H	0.112864	0.402636	0.594404
	H59	H	0.877506	0.400583	0.400258
	H60	H	0.113096	0.397321	0.588170
	H61	H	0.880735	0.590799	0.586515
	H62	H	0.112565	0.584043	0.407776
	H63	H	0.881444	0.399242	0.416268
	H64	H	0.403837	0.585617	0.117254
	H65	H	0.585940	0.577558	0.885272
	H66	H	0.586492	0.394586	0.117463
	H67	H	0.413655	0.413460	0.887633
	H68	H	0.579204	0.105054	0.413277
	H69	H	0.588130	0.879295	0.593706
	H70	H	0.406932	0.108877	0.595124
	H71	H	0.404726	0.879984	0.413618
	H72	H	0.893660	0.609556	0.084118
	H73	H	0.090013	0.380666	0.089494
	H74	H	0.090466	0.608723	0.909473
	H75	H	0.912070	0.383658	0.918638
	H76	H	0.091342	0.902714	0.617513
	H77	H	0.080843	0.086896	0.383320
	H78	H	0.903900	0.087536	0.616610
	H79	H	0.908088	0.902811	0.381562
	H80	H	0.614478	0.090016	0.908370
	H81	H	0.383825	0.074527	0.087417
	H82	H	0.613220	0.894406	0.086083
	H83	H	0.381520	0.904861	0.903084
	H84	H	0.609019	0.907644	0.087723
	H85	H	0.376847	0.090189	0.094818
	H86	H	0.611488	0.083037	0.913928
	H87	H	0.378668	0.896618	0.903799
	H88	H	0.905096	0.086855	0.615067
	H89	H	0.086280	0.086228	0.381220
	H90	H	0.085807	0.907948	0.613548
	H91	H	0.903753	0.903468	0.380825
	H92	H	0.087471	0.608382	0.908171
	H93	H	0.100882	0.377275	0.091540
	H94	H	0.906610	0.611002	0.101742
	H95	H	0.898070	0.376904	0.911436
	H96	H	0.407890	0.104088	0.583792
	H97	H	0.592420	0.879579	0.586852
	H98	H	0.593774	0.110723	0.411959
	H99	H	0.399375	0.876919	0.406357
	H100	H	0.592906	0.401077	0.117684
	H101	H	0.581958	0.587902	0.883448
	H102	H	0.409377	0.583673	0.113846
	H103	H	0.414038	0.393676	0.880927
	H104	H	0.113705	0.590179	0.410794
	H105	H	0.883480	0.580945	0.588181
	H106	H	0.110051	0.405602	0.587916
	H107	H	0.883342	0.413351	0.407858
	H108	H	0.913943	0.602145	0.083145
	H109	H	0.092944	0.377300	0.100875
	H110	H	0.088143	0.608639	0.911761
	H111	H	0.912734	0.377992	0.902615
	H112	H	0.083245	0.900093	0.616644
	H113	H	0.083236	0.081626	0.383473
	H114	H	0.905426	0.088143	0.616892
	H115	H	0.906937	0.907184	0.382525
	H116	H	0.613465	0.081310	0.904783
	H117	H	0.383637	0.089906	0.076833
	H118	H	0.615518	0.900386	0.099128
	H119	H	0.382548	0.900210	0.910883
	C120	C	0.375300	0.001286	0.620005
	C121	C	0.620187	0.985431	0.621181
	C122	C	0.617230	0.002898	0.377460
	C123	C	0.372482	0.984385	0.376209
	C124	C	0.619177	0.369950	0.008410
	C125	C	0.617541	0.613154	0.991422
	C126	C	0.376264	0.616525	0.007655
	C127	C	0.378164	0.373837	0.990646
	C128	C	0.005314	0.616325	0.378394
	C129	C	0.987970	0.616506	0.621873
	C130	C	0.005335	0.372547	0.621590
	C131	C	0.988269	0.373525	0.379091
	C132	C	0.876494	0.501198	0.121465
	C133	C	0.121706	0.485263	0.122668
	C134	C	0.119870	0.502398	0.879110
	C135	C	0.875212	0.485208	0.879366
	C136	C	0.116957	0.872503	0.508028
	C137	C	0.115377	0.114574	0.490371
	C138	C	0.873813	0.117894	0.507999
	C139	C	0.875568	0.874479	0.489561
	C140	C	0.505920	0.115088	0.877181
	C141	C	0.488047	0.114379	0.119360
	C142	C	0.505143	0.871179	0.120399
	C143	C	0.488628	0.870878	0.876941
	C144	C	0.379023	0.879227	0.676245
	C145	C	0.617021	0.106489	0.678228
	C146	C	0.616107	0.880721	0.322325
	C147	C	0.371342	0.105168	0.317857
	C148	C	0.676776	0.371013	0.885837
	C149	C	0.673147	0.610850	0.115759
	C150	C	0.318293	0.615837	0.884343
	C151	C	0.323881	0.375736	0.115006
	C152	C	0.883493	0.674513	0.376079
	C153	C	0.108548	0.674838	0.624090
	C154	C	0.883703	0.315726	0.622563
	C155	C	0.109254	0.313939	0.378522
	C156	C	0.883298	0.374623	0.678946
	C157	C	0.110438	0.614365	0.678984
	C158	C	0.883788	0.615931	0.319160
	C159	C	0.111744	0.375159	0.325670
	C160	C	0.375553	0.673058	0.884126
	C161	C	0.617921	0.670415	0.114340
	C162	C	0.619505	0.313442	0.885219
	C163	C	0.377569	0.315419	0.113188
	C164	C	0.677001	0.882523	0.376515
	C165	C	0.675373	0.106903	0.621026
	C166	C	0.318026	0.880569	0.621518
	C167	C	0.313103	0.104955	0.374860
	C168	C	0.880542	0.379464	0.178483
	C169	C	0.118008	0.607214	0.177929
	C170	C	0.119901	0.381499	0.821637
	C171	C	0.874227	0.606434	0.821311
	C172	C	0.173549	0.872358	0.385000
	C173	C	0.174018	0.113751	0.613151
	C174	C	0.816639	0.117075	0.384181
	C175	C	0.820357	0.876413	0.613294
	C176	C	0.384697	0.174258	0.874476
	C177	C	0.609513	0.171405	0.122350
	C178	C	0.383514	0.814199	0.119720
	C179	C	0.610538	0.812928	0.876900
	C180	C	0.382578	0.872771	0.176359
	C181	C	0.609540	0.112989	0.178996
	C182	C	0.383027	0.113153	0.820643
	C183	C	0.611809	0.872890	0.822641
	C184	C	0.872710	0.175219	0.384714
	C185	C	0.116761	0.171248	0.613422
	C186	C	0.115938	0.815309	0.385354
	C187	C	0.873714	0.816109	0.612484
	C188	C	0.178632	0.381541	0.878334
	C189	C	0.176534	0.607145	0.120800
	C190	C	0.820082	0.380136	0.123453
	C191	C	0.815092	0.605379	0.877951
	C192	C	0.397555	0.085565	0.595773
	C193	C	0.598428	0.900834	0.597784
	C194	C	0.592782	0.086878	0.401286
	C195	C	0.397247	0.900182	0.401242
	C196	C	0.595297	0.393120	0.094343
	C197	C	0.593982	0.590303	0.905434
	C198	C	0.400433	0.593078	0.093683
	C199	C	0.401277	0.397237	0.904887
	C200	C	0.090113	0.593015	0.403604
	C201	C	0.903172	0.593022	0.597279
	C202	C	0.090155	0.395208	0.597287
	C203	C	0.902943	0.397307	0.401640
	C204	C	0.898266	0.585615	0.096835
	C205	C	0.100796	0.400559	0.100545
	C206	C	0.095673	0.586641	0.902895
	C207	C	0.900404	0.401261	0.903785
	C208	C	0.093553	0.896628	0.593686
	C209	C	0.090583	0.091505	0.404961
	C210	C	0.897768	0.094473	0.593762
	C211	C	0.899168	0.897750	0.403868
	C212	C	0.590993	0.091568	0.901749
	C213	C	0.403212	0.091622	0.093786
	C214	C	0.590309	0.894008	0.097646
	C215	C	0.403084	0.893733	0.899188
	Zn216	Zn	0.497508	-0.007373	0.749719
	Zn217	Zn	0.495122	-0.006682	0.248514
	Zn218	Zn	0.746385	0.492243	0.001177
	Zn219	Zn	0.250203	0.493978	-0.000223
	Zn220	Zn	-0.004849	0.745494	0.500106
	Zn221	Zn	-0.004413	0.244405	0.499082
	Zn222	Zn	-0.002545	0.494079	0.750266
	Zn223	Zn	-0.001694	0.493737	0.250553
	Zn224	Zn	0.497883	0.743105	-0.001495
	Zn225	Zn	0.497000	0.243710	-0.001424
	Zn226	Zn	0.747969	-0.004756	0.498138
	Zn227	Zn	0.244865	-0.006539	0.498923
	N228	N	0.413837	0.955293	0.675570
	N229	N	0.583547	0.030021	0.678603
	N230	N	0.579637	0.956342	0.322669
	N231	N	0.407561	0.029264	0.318793
	N232	N	0.676539	0.405586	0.963430
	N233	N	0.673023	0.575914	0.038341
	N234	N	0.318741	0.581226	0.962188
	N235	N	0.324087	0.411368	0.037745
	N236	N	0.960024	0.674758	0.412329
	N237	N	0.031187	0.676397	0.589373
	N238	N	0.960566	0.314148	0.587680
	N239	N	0.031431	0.312854	0.411041
	N240	N	0.960110	0.409050	0.678503
	N241	N	0.034314	0.578909	0.677740
	N242	N	0.960482	0.580585	0.320369
	N243	N	0.035366	0.411184	0.325544
	N244	N	0.410783	0.673607	0.961746
	N245	N	0.584025	0.671723	0.035986
	N246	N	0.584833	0.312562	0.962691
	N247	N	0.410449	0.313995	0.034837
	N248	N	0.677930	0.959569	0.410210
	N249	N	0.677655	0.030552	0.586460
	N250	N	0.315248	0.957597	0.587528
	N251	N	0.313651	0.028649	0.410369
	N252	N	0.914892	0.455720	0.177393
	N253	N	0.084790	0.530581	0.179238
	N254	N	0.084175	0.457591	0.821894
	N255	N	0.910919	0.530627	0.821855
	N256	N	0.174281	0.907268	0.462392
	N257	N	0.173242	0.079105	0.535715
	N258	N	0.817140	0.082199	0.461895
	N259	N	0.821008	0.911629	0.535756
	N260	N	0.461967	0.175483	0.909102
	N261	N	0.532842	0.172474	0.086052
	N262	N	0.460846	0.812976	0.085795
	N263	N	0.532784	0.811374	0.909635
	N264	N	0.459185	0.907377	0.176899
	N265	N	0.532954	0.078277	0.177266
	N266	N	0.459527	0.077031	0.822077
	N267	N	0.535113	0.908238	0.822438
	N268	N	0.907005	0.176375	0.462665
	N269	N	0.080658	0.171604	0.536124
	N270	N	0.081684	0.815205	0.463166
	N271	N	0.907415	0.814812	0.534596
	N272	N	0.178964	0.457967	0.913098
	N273	N	0.179268	0.530353	0.087157
	N274	N	0.817639	0.456660	0.088662
	N275	N	0.815506	0.528945	0.913079
	O276	O	0.638453	0.454646	0.358307
	H277	H	0.642529	0.469601	0.375157
	H278	H	0.627041	0.468035	0.349243
	O279	O	0.665291	0.568680	0.662730
	H280	H	0.652469	0.565564	0.682277
	H281	H	0.659949	0.552611	0.664418
	O282	O	1.074653	-0.157885	0.938733
	H283	H	1.086592	-0.156878	0.943478
	H284	H	1.073828	-0.158847	0.932685
	O285	O	0.428659	0.549382	0.315528
	H286	H	0.435248	0.536142	0.322315
	H287	H	0.407730	0.565322	0.302133
	O288	O	1.001709	0.995515	1.118692
	H289	H	0.998754	0.989685	1.106899
	H290	H	0.997253	0.992861	1.109693
	O291	O	-0.040338	1.082375	0.063995
	H292	H	-0.052284	1.085347	0.050297
	H293	H	-0.032692	1.079661	0.070589
	O294	O	0.327607	0.533609	0.338426
	H295	H	0.322718	0.528371	0.335749
	H296	H	0.333624	0.526550	0.345535
	O297	O	0.401002	0.602153	0.457755
	H298	H	0.408505	0.606478	0.450375
	H299	H	0.405094	0.594391	0.457198
	O300	O	0.490992	0.361618	0.498633
	H301	H	0.500155	0.368010	0.508828
	H302	H	0.496052	0.366035	0.494964
	O303	O	0.383624	0.468788	0.532491
	H304	H	0.393200	0.459958	0.536200
	H305	H	0.371482	0.470512	0.520066
	O306	O	0.303713	0.686939	0.495957
	H307	H	0.287545	0.708108	0.480373
	H308	H	0.308205	0.676430	0.472271
	O309	O	0.554218	0.653651	0.414482
	H310	H	0.533452	0.652243	0.427248
	H311	H	0.570613	0.648168	0.414855
	O312	O	0.073339	-0.057320	0.006242
	H313	H	0.074086	-0.069164	0.000086
	H314	H	0.068594	-0.058233	0.008227
	O315	O	0.612798	0.634092	0.629884
	H316	H	0.606686	0.637463	0.631428
	H317	H	0.610087	0.633293	0.628816
	O318	O	-0.085855	1.183273	0.839516
	H319	H	-0.099505	1.187370	0.844076
	H320	H	-0.102016	1.179294	0.828599
	O321	O	0.688961	0.329384	0.466229
	H322	H	0.688560	0.335281	0.432926
	H323	H	0.716111	0.317015	0.459068
	O324	O	0.134412	1.055036	-0.148346
	H325	H	0.135651	1.051052	-0.134443
	H326	H	0.110474	1.059248	-0.134122
	O327	O	0.621644	0.500932	0.456182
	H328	H	0.616200	0.509155	0.461647
	H329	H	0.620872	0.510177	0.460283
	O330	O	0.475161	-0.686471	1.470270
	H331	H	0.485584	-0.694089	1.460146
	H332	H	0.479913	-0.690397	1.490706
	O333	O	-0.085933	0.089177	0.889313
	H334	H	-0.085241	0.075986	0.882301
	H335	H	-0.098624	0.082332	0.883014
	O336	O	0.505205	0.354813	0.413372
	H337	H	0.506461	0.368582	0.428072
	H338	H	0.505108	0.354799	0.431282
	O339	O	0.733029	-0.218845	0.189655
	H340	H	0.733639	-0.229228	0.176931
	H341	H	0.718074	-0.215319	0.178605
	O342	O	-0.071260	0.006642	-0.114915
	H343	H	-0.073222	0.006492	-0.126754
	H344	H	-0.083133	0.012390	-0.124295
	O345	O	0.984988	-0.159317	0.936636
	H346	H	0.995288	-0.157335	0.922791
	H347	H	1.003368	-0.171037	0.922813
	O348	O	1.041584	0.981022	0.127541
	H349	H	1.052372	0.984892	0.132119
	H350	H	1.057806	0.972466	0.144771
	O351	O	0.475500	0.478039	0.665464
	H352	H	0.468519	0.483493	0.650790
	H353	H	0.464135	0.489660	0.648413
	O354	O	1.054812	0.094412	1.032508
	H355	H	1.040520	0.109739	1.030419
	H356	H	1.049518	0.095620	1.040097
	O357	O	0.320816	0.349830	0.665757
	H358	H	0.309587	0.352639	0.685119
	H359	H	0.315127	0.345430	0.672598
	O360	O	0.488505	0.391368	0.545232
	H361	H	0.488281	0.393524	0.556948
	H362	H	0.491745	0.396634	0.556458
	O363	O	0.021423	1.003691	0.899503
	H364	H	0.028276	0.992235	0.898426
	H365	H	0.019725	1.011816	0.913689
	O366	O	0.374771	0.320413	0.575634
	H367	H	0.364360	0.304394	0.584882
	H368	H	0.384605	0.323384	0.603777
	O369	O	0.101034	0.942944	0.118963
	H370	H	0.104096	0.954610	0.119827
	H371	H	0.093565	0.946645	0.099991
	O372	O	0.542528	0.580735	0.472006
	H373	H	0.544171	0.588011	0.469202
	H374	H	0.554247	0.583174	0.473587
	O375	O	0.325488	0.620319	0.428777
	H376	H	0.318960	0.616096	0.423873
	H377	H	0.327193	0.608543	0.411298
	O378	O	1.051687	1.054633	-0.018430
	H379	H	1.054913	1.062568	0.002236
	H380	H	1.054417	1.069734	-0.021339
	O381	O	1.069476	0.088752	0.096340
	H382	H	1.078964	0.102654	0.108009
	H383	H	1.072448	0.087211	0.087865
	O384	O	1.127377	0.908199	0.038316
	H385	H	1.129736	0.919817	0.031969
	H386	H	1.117475	0.908857	0.036911
	O387	O	-0.103547	0.056355	0.038849
	H388	H	-0.105917	0.058477	0.041107
	H389	H	-0.109415	0.051837	0.029261
	O390	O	0.077855	0.882244	-0.088849
	H391	H	0.096947	0.871932	-0.100313
	H392	H	0.080623	0.889815	-0.073183
	O393	O	0.805509	0.987939	1.094259
	H394	H	0.803997	0.987478	1.093237
	H395	H	0.802711	0.988894	1.110809
	O396	O	0.579133	0.588509	0.508097
	H397	H	0.565299	0.594014	0.498555
	H398	H	0.575036	0.587615	0.508486
	O399	O	-0.016352	1.021470	1.123579
	H400	H	-0.021724	1.026267	1.132735
	H401	H	-0.017857	1.015482	1.138368
	O402	O	0.498831	0.471474	0.461732
	H403	H	0.499191	0.468238	0.451021
	H404	H	0.499818	0.474155	0.469908
	O405	O	0.817071	1.058506	-0.016686
	H406	H	0.804442	1.056574	-0.019020
	H407	H	0.828830	1.045053	-0.025096
	O408	O	0.998324	0.837658	-0.073541
	H409	H	0.992972	0.837982	-0.077466
	H410	H	1.002303	0.843898	-0.061760
	O411	O	0.994733	-0.048478	1.011158
	H412	H	1.000560	-0.038613	0.995342
	H413	H	0.992208	-0.042667	1.011756
	O414	O	0.543347	0.460186	0.620974
	H415	H	0.555024	0.465570	0.632216
	H416	H	0.558244	0.458382	0.613817
	O417	O	0.632370	0.525992	0.657923
	H418	H	0.612859	0.530109	0.640916
	H419	H	0.642634	0.525620	0.658380
