data_Molecule from HDF5

_cell_length_a		16.365098
_cell_length_b		16.200417
_cell_length_c		16.040850
_cell_angle_alpha	90.131591
_cell_angle_beta	89.898663
_cell_angle_gamma	90.195069
_symmetry_space_group_name_H-M	'P 1'
_symmetry_Int_Tables_number		1

loop_
	_symmetry_equiv_pos_as_xyz
	x,y,z

loop_
	_atom_site_label
	_atom_site_type_symbol
	_atom_site_fract_x
	_atom_site_fract_y
	_atom_site_fract_z
	H0	H	0.407958	0.837797	0.710369
	H1	H	0.599531	0.169492	0.708268
	H2	H	0.600096	0.838382	0.285627
	H3	H	0.410709	0.169664	0.289885
	H4	H	0.717757	0.404904	0.833584
	H5	H	0.718815	0.606885	0.162707
	H6	H	0.290654	0.602155	0.831767
	H7	H	0.289089	0.403280	0.163303
	H8	H	0.840313	0.718032	0.400539
	H9	H	0.166094	0.721088	0.599101
	H10	H	0.840915	0.286227	0.600207
	H11	H	0.167018	0.288977	0.398805
	H12	H	0.839814	0.407779	0.711160
	H13	H	0.167986	0.600998	0.711530
	H14	H	0.840065	0.600489	0.284875
	H15	H	0.167152	0.407345	0.285027
	H16	H	0.405835	0.717372	0.832184
	H17	H	0.599201	0.716272	0.164496
	H18	H	0.602580	0.291425	0.832546
	H19	H	0.407435	0.293671	0.164952
	H20	H	0.718455	0.839313	0.396931
	H21	H	0.722006	0.166047	0.600186
	H22	H	0.286095	0.840055	0.600580
	H23	H	0.288920	0.166342	0.396260
	H24	H	0.907304	0.338381	0.209433
	H25	H	0.100075	0.668892	0.209804
	H26	H	0.099608	0.338396	0.785786
	H27	H	0.910677	0.669417	0.789664
	H28	H	0.217536	0.904940	0.332446
	H29	H	0.219191	0.104631	0.663235
	H30	H	0.791047	0.102165	0.333324
	H31	H	0.788024	0.900990	0.662308
	H32	H	0.339860	0.217281	0.901792
	H33	H	0.667293	0.220723	0.097078
	H34	H	0.341192	0.788094	0.100114
	H35	H	0.665927	0.788128	0.896604
	H36	H	0.340364	0.907991	0.212524
	H37	H	0.668897	0.100349	0.210358
	H38	H	0.339908	0.101016	0.785223
	H39	H	0.667548	0.906529	0.784136
	H40	H	0.908046	0.213928	0.332605
	H41	H	0.100986	0.216228	0.665197
	H42	H	0.103113	0.790253	0.332659
	H43	H	0.906957	0.793113	0.664510
	H44	H	0.219079	0.340266	0.895563
	H45	H	0.220934	0.666749	0.099625
	H46	H	0.784914	0.340864	0.101009
	H47	H	0.789128	0.667463	0.897312
	H48	H	0.407398	0.119235	0.585089
	H49	H	0.593892	0.886643	0.589028
	H50	H	0.607880	0.124355	0.405542
	H51	H	0.402733	0.883794	0.409149
	H52	H	0.584848	0.399997	0.118262
	H53	H	0.589598	0.596624	0.881722
	H54	H	0.410275	0.593041	0.115815
	H55	H	0.406879	0.412278	0.877583
	H56	H	0.123144	0.598097	0.394470
	H57	H	0.886746	0.596799	0.595930
	H58	H	0.118910	0.417167	0.594772
	H59	H	0.886863	0.408945	0.403173
	H60	H	0.123399	0.404020	0.596693
	H61	H	0.885925	0.603035	0.595035
	H62	H	0.120645	0.607582	0.411655
	H63	H	0.886180	0.406000	0.404877
	H64	H	0.413182	0.597669	0.115977
	H65	H	0.601474	0.602794	0.875179
	H66	H	0.612421	0.411208	0.122664
	H67	H	0.412591	0.413133	0.880311
	H68	H	0.595271	0.121516	0.400274
	H69	H	0.601182	0.885644	0.587642
	H70	H	0.407599	0.122963	0.595244
	H71	H	0.410199	0.884134	0.398648
	H72	H	0.915801	0.620794	0.094759
	H73	H	0.095071	0.388454	0.081674
	H74	H	0.104983	0.623242	0.907895
	H75	H	0.922230	0.389496	0.907282
	H76	H	0.100687	0.922610	0.615624
	H77	H	0.111023	0.093242	0.375926
	H78	H	0.913368	0.090726	0.616074
	H79	H	0.908612	0.906228	0.376609
	H80	H	0.616299	0.093590	0.914479
	H81	H	0.385198	0.098269	0.102622
	H82	H	0.620310	0.921536	0.102904
	H83	H	0.388956	0.912161	0.907661
	H84	H	0.625760	0.895616	0.095541
	H85	H	0.386019	0.107702	0.091502
	H86	H	0.621665	0.093738	0.892521
	H87	H	0.387211	0.910594	0.903731
	H88	H	0.913977	0.097888	0.618078
	H89	H	0.090081	0.085931	0.384730
	H90	H	0.086493	0.911582	0.614462
	H91	H	0.906962	0.913996	0.378551
	H92	H	0.096573	0.622114	0.901306
	H93	H	0.107050	0.383113	0.091914
	H94	H	0.910523	0.619248	0.083579
	H95	H	0.899250	0.386410	0.917290
	H96	H	0.415175	0.119504	0.591168
	H97	H	0.598440	0.883383	0.594412
	H98	H	0.598115	0.118243	0.414670
	H99	H	0.415169	0.887896	0.410665
	H100	H	0.590914	0.429144	0.111342
	H101	H	0.601426	0.588550	0.879531
	H102	H	0.408413	0.597009	0.116924
	H103	H	0.410817	0.407642	0.878151
	H104	H	0.115617	0.589104	0.409992
	H105	H	0.887599	0.598658	0.590014
	H106	H	0.118267	0.407986	0.583821
	H107	H	0.887548	0.409925	0.406851
	H108	H	0.903741	0.623322	0.092919
	H109	H	0.091524	0.385119	0.096998
	H110	H	0.095031	0.618903	0.911346
	H111	H	0.903787	0.381164	0.893481
	H112	H	0.102543	0.904452	0.621066
	H113	H	0.093421	0.108045	0.377561
	H114	H	0.906925	0.094875	0.618805
	H115	H	0.914649	0.911121	0.379614
	H116	H	0.623269	0.111978	0.904685
	H117	H	0.390407	0.094283	0.089421
	H118	H	0.615485	0.912599	0.076604
	H119	H	0.387018	0.908168	0.907589
	C120	C	0.381489	0.012206	0.620009
	C121	C	0.625937	0.994504	0.619115
	C122	C	0.626954	0.012328	0.377110
	C123	C	0.382691	0.994506	0.377667
	C124	C	0.624532	0.384092	0.007937
	C125	C	0.625187	0.625675	0.988957
	C126	C	0.382329	0.624833	0.006661
	C127	C	0.382363	0.382851	0.988714
	C128	C	0.011992	0.626151	0.376695
	C129	C	0.994945	0.627153	0.621729
	C130	C	0.011989	0.381406	0.620559
	C131	C	0.995162	0.380756	0.376282
	C132	C	0.881226	0.512684	0.119743
	C133	C	0.125697	0.494580	0.119297
	C134	C	0.125882	0.512552	0.877153
	C135	C	0.881976	0.494763	0.877565
	C136	C	0.124866	0.883613	0.507168
	C137	C	0.126280	0.125046	0.489477
	C138	C	0.883368	0.123253	0.507670
	C139	C	0.882397	0.882301	0.488554
	C140	C	0.512271	0.127313	0.876072
	C141	C	0.495888	0.127349	0.121421
	C142	C	0.512494	0.882011	0.120767
	C143	C	0.495483	0.881826	0.876785
	C144	C	0.385662	0.887588	0.674194
	C145	C	0.621745	0.119286	0.672637
	C146	C	0.621944	0.888050	0.322432
	C147	C	0.388448	0.119633	0.325351
	C148	C	0.679680	0.385312	0.882813
	C149	C	0.680209	0.625242	0.113513
	C150	C	0.328046	0.622457	0.881470
	C151	C	0.327400	0.384575	0.113989
	C152	C	0.889129	0.680444	0.379995
	C153	C	0.117848	0.682460	0.619051
	C154	C	0.889434	0.325473	0.619248
	C155	C	0.118285	0.326965	0.379069
	C156	C	0.888926	0.385506	0.674793
	C157	C	0.118659	0.622645	0.675050
	C158	C	0.888939	0.622154	0.322462
	C159	C	0.118373	0.385802	0.322384
	C160	C	0.385033	0.679854	0.881584
	C161	C	0.621096	0.679954	0.114374
	C162	C	0.622460	0.329004	0.882407
	C163	C	0.386125	0.329929	0.114845
	C164	C	0.681051	0.888456	0.377591
	C165	C	0.682216	0.117835	0.618594
	C166	C	0.325213	0.888690	0.619619
	C167	C	0.327964	0.118046	0.378563
	C168	C	0.885319	0.388054	0.173357
	C169	C	0.121661	0.619267	0.173285
	C170	C	0.120924	0.388109	0.822155
	C171	C	0.887544	0.619527	0.824533
	C172	C	0.179940	0.884726	0.382137
	C173	C	0.180921	0.123741	0.614140
	C174	C	0.828637	0.121737	0.382826
	C175	C	0.826602	0.882711	0.613147
	C176	C	0.389001	0.180423	0.880261
	C177	C	0.618717	0.182477	0.117902
	C178	C	0.389677	0.826786	0.119092
	C179	C	0.617772	0.826554	0.877628
	C180	C	0.389145	0.886349	0.175078
	C181	C	0.619608	0.122893	0.174428
	C182	C	0.388966	0.122425	0.822392
	C183	C	0.618492	0.885650	0.821761
	C184	C	0.886876	0.177122	0.382281
	C185	C	0.122404	0.179501	0.614838
	C186	C	0.122766	0.828179	0.382094
	C187	C	0.885767	0.829108	0.614375
	C188	C	0.180525	0.388837	0.876832
	C189	C	0.181457	0.618067	0.118261
	C190	C	0.824509	0.389513	0.119364
	C191	C	0.827516	0.618557	0.878600
	C192	C	0.403462	0.098313	0.597195
	C193	C	0.604371	0.907682	0.596815
	C194	C	0.606508	0.099041	0.400155
	C195	C	0.403249	0.907787	0.399572
	C196	C	0.602518	0.406730	0.094790
	C197	C	0.603858	0.602921	0.901551
	C198	C	0.404233	0.602439	0.093719
	C199	C	0.403680	0.404765	0.901506
	C200	C	0.097648	0.604520	0.398793
	C201	C	0.909057	0.605787	0.600057
	C202	C	0.097969	0.403262	0.598339
	C203	C	0.909154	0.401950	0.398477
	C204	C	0.903447	0.598950	0.097072
	C205	C	0.104136	0.407916	0.096935
	C206	C	0.105157	0.598927	0.900128
	C207	C	0.902278	0.408094	0.899376
	C208	C	0.102992	0.906198	0.594432
	C209	C	0.104665	0.102482	0.401985
	C210	C	0.904982	0.100975	0.595056
	C211	C	0.903912	0.904185	0.400987
	C212	C	0.598241	0.106167	0.897389
	C213	C	0.409547	0.106243	0.100702
	C214	C	0.598333	0.903613	0.098359
	C215	C	0.409897	0.903862	0.899614
	Zn216	Zn	0.504409	0.003644	0.747746
	Zn217	Zn	0.504420	0.004076	0.250264
	Zn218	Zn	0.752460	0.504357	-0.001808
	Zn219	Zn	0.254490	0.502998	-0.002537
	Zn220	Zn	0.003826	0.756044	0.498486
	Zn221	Zn	0.003590	0.251648	0.498701
	Zn222	Zn	0.003476	0.503930	0.749649
	Zn223	Zn	0.003628	0.503149	0.247534
	Zn224	Zn	0.503514	0.752822	-0.001908
	Zn225	Zn	0.503389	0.256509	-0.001392
	Zn226	Zn	0.755478	0.002508	0.498246
	Zn227	Zn	0.253528	0.003287	0.497671
	N228	N	0.419907	0.965282	0.674772
	N229	N	0.587525	0.041646	0.673228
	N230	N	0.589108	0.966035	0.322091
	N231	N	0.421791	0.041772	0.324556
	N232	N	0.681125	0.419001	0.961619
	N233	N	0.682827	0.592172	0.034525
	N234	N	0.326179	0.589050	0.960231
	N235	N	0.324813	0.416835	0.034663
	N236	N	0.966647	0.682964	0.413135
	N237	N	0.040056	0.685638	0.586645
	N238	N	0.967166	0.322790	0.586183
	N239	N	0.040541	0.323709	0.411938
	N240	N	0.965940	0.419618	0.675485
	N241	N	0.041303	0.589160	0.676887
	N242	N	0.966278	0.589063	0.320365
	N243	N	0.040813	0.418531	0.320726
	N244	N	0.418102	0.681468	0.960469
	N245	N	0.587352	0.680229	0.035851
	N246	N	0.588763	0.328217	0.961124
	N247	N	0.419735	0.328755	0.036279
	N248	N	0.684268	0.966807	0.411090
	N249	N	0.685025	0.039118	0.586115
	N250	N	0.322529	0.967012	0.586548
	N251	N	0.324482	0.039307	0.410797
	N252	N	0.920054	0.465636	0.173843
	N253	N	0.087490	0.541476	0.173930
	N254	N	0.087626	0.465985	0.822187
	N255	N	0.920846	0.541791	0.823835
	N256	N	0.181322	0.918317	0.460924
	N257	N	0.183619	0.090758	0.535014
	N258	N	0.826536	0.088707	0.461846
	N259	N	0.824316	0.915039	0.533956
	N260	N	0.466638	0.183513	0.912822
	N261	N	0.540784	0.185262	0.085830
	N262	N	0.467434	0.823842	0.086136
	N263	N	0.540429	0.824258	0.911273
	N264	N	0.466349	0.920129	0.176163
	N265	N	0.542212	0.089327	0.176786
	N266	N	0.466648	0.089958	0.819671
	N267	N	0.541279	0.919319	0.820992
	N268	N	0.920302	0.178200	0.460867
	N269	N	0.088708	0.180035	0.536351
	N270	N	0.089180	0.827310	0.460846
	N271	N	0.919901	0.828735	0.535905
	N272	N	0.183576	0.467009	0.910546
	N273	N	0.184155	0.539578	0.085446
	N274	N	0.821957	0.467949	0.086829
	N275	N	0.823979	0.539993	0.911052
	O276	O	1.034090	0.996200	0.033463
	H277	H	1.040014	0.995609	0.034737
	H278	H	1.040194	0.998864	0.022499
	O279	O	0.072424	-0.031592	-0.044152
	H280	H	0.068836	-0.034461	-0.046508
	H281	H	0.066759	-0.022836	-0.044666
	O282	O	0.034670	-0.024967	0.991149
	H283	H	0.034464	-0.030226	0.989731
	H284	H	0.040876	-0.032716	0.983972
	O285	O	0.429135	0.533787	0.523606
	H286	H	0.425484	0.535541	0.526740
	H287	H	0.430407	0.529256	0.528454
	O288	O	0.460021	0.448562	0.500946
	H289	H	0.460528	0.453193	0.502700
	H290	H	0.450795	0.449594	0.504288
	O291	O	0.451449	0.527761	0.477710
	H292	H	0.449684	0.533387	0.483493
	H293	H	0.447734	0.536547	0.468429
	O294	O	-0.506698	-0.546701	0.423967
	H295	H	-0.507868	-0.546903	0.421481
	H296	H	-0.512269	-0.559132	0.422617
	O297	O	0.429081	0.448446	0.491509
	H298	H	0.424248	0.453182	0.488085
	H299	H	0.427160	0.445006	0.487311
	O300	O	0.001378	0.969959	0.942313
	H301	H	0.006024	0.956014	0.953582
	H302	H	-0.000859	0.967561	0.940176
	O303	O	0.460912	0.446941	0.518676
	H304	H	0.455167	0.439990	0.517273
	H305	H	0.474519	0.447786	0.520145
	O306	O	0.019337	0.011115	0.972259
	H307	H	0.028270	0.004606	0.979608
	H308	H	0.014810	0.010051	0.967878
	O309	O	1.027466	0.953094	1.013529
	H310	H	1.029075	0.958111	1.008896
	H311	H	1.017909	0.953720	1.017597
	O312	O	0.519653	0.464334	0.505740
	H313	H	0.519472	0.451898	0.508524
	H314	H	0.528706	0.458569	0.494676
	O315	O	0.477728	0.442878	0.447003
	H316	H	0.478941	0.448812	0.451967
	H317	H	0.476594	0.441397	0.449325
	O318	O	0.104684	0.974997	-0.065126
	H319	H	0.106615	0.973267	-0.057558
	H320	H	0.106595	0.981656	-0.054051
	O321	O	1.056326	0.949767	-0.046952
	H322	H	1.054185	0.953556	-0.059271
	H323	H	1.058465	0.944371	-0.056751
