data_Molecule from HDF5

_cell_length_a		16.546887
_cell_length_b		16.456380
_cell_length_c		16.551729
_cell_angle_alpha	89.931617
_cell_angle_beta	89.882961
_cell_angle_gamma	90.115983
_symmetry_space_group_name_H-M	'P 1'
_symmetry_Int_Tables_number		1

loop_
	_symmetry_equiv_pos_as_xyz
	x,y,z

loop_
	_atom_site_label
	_atom_site_type_symbol
	_atom_site_fract_x
	_atom_site_fract_y
	_atom_site_fract_z
	H0	H	0.379794	0.854193	0.717624
	H1	H	0.590083	0.169964	0.708325
	H2	H	0.595257	0.852502	0.270465
	H3	H	0.386039	0.167706	0.272034
	H4	H	0.708558	0.410127	0.834929
	H5	H	0.712735	0.618209	0.149114
	H6	H	0.267987	0.619000	0.836437
	H7	H	0.268141	0.404041	0.148110
	H8	H	0.831550	0.727723	0.391851
	H9	H	0.145497	0.736566	0.600425
	H10	H	0.832105	0.292543	0.595615
	H11	H	0.146843	0.290964	0.388768
	H12	H	0.833703	0.407519	0.713788
	H13	H	0.147406	0.619161	0.715842
	H14	H	0.833688	0.616152	0.271486
	H15	H	0.145875	0.404780	0.270558
	H16	H	0.385227	0.732768	0.835831
	H17	H	0.596332	0.734338	0.148571
	H18	H	0.590795	0.295422	0.833824
	H19	H	0.388741	0.291742	0.150016
	H20	H	0.711091	0.852379	0.386669
	H21	H	0.706108	0.169549	0.591619
	H22	H	0.265041	0.853718	0.600770
	H23	H	0.269170	0.167896	0.389174
	H24	H	0.888481	0.352365	0.211175
	H25	H	0.099214	0.667724	0.216631
	H26	H	0.093411	0.353123	0.773603
	H27	H	0.884556	0.668799	0.770002
	H28	H	0.211467	0.904306	0.335896
	H29	H	0.211569	0.115395	0.648785
	H30	H	0.770313	0.114243	0.335280
	H31	H	0.766255	0.903869	0.649274
	H32	H	0.332316	0.230628	0.890256
	H33	H	0.647581	0.231165	0.096544
	H34	H	0.333589	0.786221	0.099926
	H35	H	0.647154	0.791773	0.888486
	H36	H	0.333747	0.901158	0.217050
	H37	H	0.645723	0.116856	0.214496
	H38	H	0.332398	0.115988	0.771605
	H39	H	0.646256	0.906145	0.770279
	H40	H	0.887973	0.229823	0.335106
	H41	H	0.092334	0.230069	0.649998
	H42	H	0.094470	0.789642	0.335508
	H43	H	0.883200	0.788255	0.649912
	H44	H	0.208740	0.352311	0.891012
	H45	H	0.213760	0.668298	0.098638
	H46	H	0.771325	0.352487	0.095856
	H47	H	0.768694	0.669232	0.886754
	H48	H	0.397915	0.122205	0.576710
	H49	H	0.573876	0.897755	0.581919
	H50	H	0.578153	0.121424	0.405343
	H51	H	0.401043	0.899353	0.410044
	H52	H	0.582453	0.421248	0.107230
	H53	H	0.579199	0.600490	0.880456
	H54	H	0.399107	0.593143	0.103728
	H55	H	0.404360	0.416796	0.879262
	H56	H	0.104002	0.598543	0.398928
	H57	H	0.881437	0.592375	0.581698
	H58	H	0.104298	0.418538	0.581844
	H59	H	0.876107	0.426732	0.397164
	H60	H	0.102199	0.423143	0.580962
	H61	H	0.876644	0.599785	0.588290
	H62	H	0.102576	0.603649	0.406400
	H63	H	0.873960	0.414619	0.399713
	H64	H	0.406944	0.597048	0.101758
	H65	H	0.580487	0.599742	0.881517
	H66	H	0.581089	0.421287	0.106210
	H67	H	0.394258	0.420860	0.876931
	H68	H	0.583840	0.124755	0.402244
	H69	H	0.580595	0.896279	0.578251
	H70	H	0.397313	0.124864	0.585547
	H71	H	0.397250	0.895555	0.403273
	H72	H	0.901605	0.623115	0.078166
	H73	H	0.072953	0.400584	0.084122
	H74	H	0.076931	0.623272	0.903755
	H75	H	0.898304	0.399044	0.906224
	H76	H	0.078220	0.925055	0.602709
	H77	H	0.077993	0.100080	0.379883
	H78	H	0.897776	0.101740	0.605934
	H79	H	0.891227	0.927142	0.379149
	H80	H	0.601180	0.105966	0.908999
	H81	H	0.378576	0.097251	0.081510
	H82	H	0.599799	0.928033	0.082912
	H83	H	0.375419	0.911984	0.908194
	H84	H	0.601462	0.919937	0.080790
	H85	H	0.376690	0.101092	0.085330
	H86	H	0.600219	0.092461	0.898223
	H87	H	0.382844	0.929860	0.910493
	H88	H	0.895863	0.100837	0.606298
	H89	H	0.079885	0.102910	0.379253
	H90	H	0.074479	0.924637	0.602926
	H91	H	0.908768	0.926113	0.384878
	H92	H	0.081004	0.623713	0.907402
	H93	H	0.079513	0.401045	0.075420
	H94	H	0.898121	0.625846	0.082804
	H95	H	0.899735	0.397788	0.900804
	H96	H	0.405492	0.120958	0.582094
	H97	H	0.579761	0.894772	0.585727
	H98	H	0.577066	0.123587	0.398218
	H99	H	0.405928	0.897671	0.403009
	H100	H	0.581523	0.419934	0.106684
	H101	H	0.579221	0.599706	0.881635
	H102	H	0.400478	0.601859	0.105430
	H103	H	0.401247	0.427474	0.882279
	H104	H	0.100354	0.594826	0.407050
	H105	H	0.879399	0.602244	0.577808
	H106	H	0.103669	0.421885	0.585780
	H107	H	0.879065	0.421960	0.408264
	H108	H	0.904191	0.624740	0.084358
	H109	H	0.083162	0.396837	0.084639
	H110	H	0.081436	0.625434	0.901901
	H111	H	0.903651	0.400031	0.904329
	H112	H	0.076933	0.921886	0.604049
	H113	H	0.081442	0.099763	0.379657
	H114	H	0.897725	0.099457	0.605997
	H115	H	0.900231	0.911285	0.378081
	H116	H	0.606920	0.107688	0.892827
	H117	H	0.377258	0.102886	0.079723
	H118	H	0.598031	0.925080	0.075279
	H119	H	0.374600	0.925094	0.893614
	C120	C	0.366849	0.019190	0.614900
	C121	C	0.609241	1.001656	0.612387
	C122	C	0.611679	0.018836	0.369782
	C123	C	0.369033	1.001819	0.372628
	C124	C	0.612079	0.390039	0.001817
	C125	C	0.611919	0.633149	0.984446
	C126	C	0.369280	0.631636	0.000596
	C127	C	0.368848	0.389593	0.983424
	C128	C	-0.001493	0.631326	0.372056
	C129	C	0.982440	0.632167	0.614776
	C130	C	-0.000809	0.389761	0.614416
	C131	C	0.980591	0.389504	0.370631
	C132	C	0.869702	0.519790	0.113450
	C133	C	0.112304	0.502715	0.114322
	C134	C	0.111508	0.519660	0.872416
	C135	C	0.869120	0.503170	0.871636
	C136	C	0.110174	0.889980	0.500640
	C137	C	0.110941	0.131690	0.484186
	C138	C	0.867795	0.131613	0.501367
	C139	C	0.867531	0.888777	0.484486
	C140	C	0.498431	0.133111	0.869920
	C141	C	0.481558	0.132150	0.113835
	C142	C	0.497504	0.889503	0.113873
	C143	C	0.481344	0.890067	0.871269
	C144	C	0.362755	0.901179	0.676533
	C145	C	0.609162	0.121994	0.669299
	C146	C	0.613483	0.900045	0.310160
	C147	C	0.367009	0.120514	0.312231
	C148	C	0.669854	0.390214	0.882558
	C149	C	0.672371	0.636243	0.102135
	C150	C	0.308547	0.635953	0.883268
	C151	C	0.308969	0.386766	0.101618
	C152	C	0.879385	0.689729	0.371903
	C153	C	0.099381	0.694787	0.617915
	C154	C	0.879996	0.331401	0.615422
	C155	C	0.099245	0.330426	0.369762
	C156	C	0.880823	0.388512	0.673911
	C157	C	0.100131	0.636582	0.675514
	C158	C	0.880450	0.634054	0.312150
	C159	C	0.098903	0.387059	0.310833
	C160	C	0.366999	0.692794	0.883074
	C161	C	0.614677	0.694200	0.101722
	C162	C	0.610971	0.333497	0.881951
	C163	C	0.368448	0.330600	0.102368
	C164	C	0.671515	0.900008	0.367690
	C165	C	0.667001	0.121858	0.611458
	C166	C	0.305398	0.901010	0.618562
	C167	C	0.309172	0.120716	0.370239
	C168	C	0.869057	0.400265	0.172111
	C169	C	0.116598	0.620835	0.175709
	C170	C	0.112513	0.400318	0.813376
	C171	C	0.866982	0.621775	0.811054
	C172	C	0.171273	0.886563	0.383122
	C173	C	0.170650	0.133552	0.602331
	C174	C	0.809837	0.132910	0.382460
	C175	C	0.806983	0.886127	0.602366
	C176	C	0.379512	0.191418	0.870508
	C177	C	0.599998	0.191463	0.115153
	C178	C	0.380263	0.827215	0.117642
	C179	C	0.599750	0.831243	0.869806
	C180	C	0.380205	0.884610	0.175661
	C181	C	0.599194	0.134526	0.173877
	C182	C	0.379400	0.134078	0.811923
	C183	C	0.599132	0.888065	0.810796
	C184	C	0.867979	0.190576	0.382605
	C185	C	0.111938	0.190693	0.602826
	C186	C	0.112842	0.829453	0.382780
	C187	C	0.865270	0.828544	0.602634
	C188	C	0.169819	0.400191	0.871619
	C189	C	0.173623	0.620967	0.117065
	C190	C	0.810729	0.400309	0.114829
	C191	C	0.809244	0.622002	0.869164
	C192	C	0.392841	0.101390	0.588874
	C193	C	0.585248	0.918182	0.588684
	C194	C	0.586769	0.101662	0.394708
	C195	C	0.394072	0.919256	0.398134
	C196	C	0.588593	0.413732	0.085046
	C197	C	0.586742	0.607134	0.902491
	C198	C	0.394954	0.605051	0.082443
	C199	C	0.393120	0.414679	0.900948
	C200	C	0.080832	0.606140	0.396917
	C201	C	0.900494	0.605695	0.589738
	C202	C	0.081832	0.414221	0.589931
	C203	C	0.898145	0.414007	0.394859
	C204	C	0.894296	0.603019	0.088914
	C205	C	0.085897	0.420743	0.088647
	C206	C	0.086759	0.602489	0.897240
	C207	C	0.893793	0.420629	0.896599
	C208	C	0.083951	0.916271	0.582240
	C209	C	0.086828	0.107694	0.401247
	C210	C	0.890596	0.107704	0.584501
	C211	C	0.892841	0.914043	0.402279
	C212	C	0.581292	0.109034	0.893337
	C213	C	0.398931	0.107387	0.089253
	C214	C	0.578675	0.916573	0.087458
	C215	C	0.399028	0.915106	0.896652
	Zn216	Zn	0.488783	0.010523	0.741679
	Zn217	Zn	0.489371	0.010269	0.242588
	Zn218	Zn	0.740252	0.511892	-0.006780
	Zn219	Zn	0.240423	0.511350	-0.007399
	Zn220	Zn	-0.010118	0.760356	0.492729
	Zn221	Zn	-0.010593	0.260861	0.492758
	Zn222	Zn	-0.008961	0.511357	0.743533
	Zn223	Zn	-0.009278	0.511692	0.242667
	Zn224	Zn	0.489660	0.760793	-0.007192
	Zn225	Zn	0.490366	0.261436	-0.007758
	Zn226	Zn	0.738583	0.009984	0.491863
	Zn227	Zn	0.239794	0.010179	0.492633
	N228	N	0.400317	0.975682	0.674215
	N229	N	0.574341	0.046086	0.670313
	N230	N	0.577345	0.975227	0.311070
	N231	N	0.403574	0.045576	0.313727
	N232	N	0.670747	0.424424	0.958196
	N233	N	0.670819	0.599022	0.027989
	N234	N	0.309816	0.598547	0.957479
	N235	N	0.309035	0.422539	0.026746
	N236	N	0.953809	0.688156	0.408531
	N237	N	0.025160	0.692477	0.581213
	N238	N	0.954803	0.331896	0.579265
	N239	N	0.024762	0.331596	0.406401
	N240	N	0.955956	0.424107	0.673442
	N241	N	0.026235	0.598487	0.673691
	N242	N	0.955666	0.598996	0.311831
	N243	N	0.024158	0.423040	0.311192
	N244	N	0.404068	0.690289	0.957192
	N245	N	0.577895	0.692344	0.027550
	N246	N	0.576183	0.332845	0.957413
	N247	N	0.404936	0.332148	0.027825
	N248	N	0.670530	0.974957	0.403942
	N249	N	0.667500	0.045856	0.577204
	N250	N	0.307823	0.975404	0.580828
	N251	N	0.310335	0.045897	0.406928
	N252	N	0.904715	0.475768	0.171536
	N253	N	0.079182	0.546310	0.174086
	N254	N	0.077289	0.475864	0.813500
	N255	N	0.903680	0.547033	0.812613
	N256	N	0.169819	0.923244	0.457563
	N257	N	0.170084	0.097770	0.527523
	N258	N	0.809695	0.096977	0.457306
	N259	N	0.808003	0.922683	0.527717
	N260	N	0.454514	0.191002	0.905704
	N261	N	0.525749	0.190027	0.078417
	N262	N	0.454119	0.830064	0.079968
	N263	N	0.525294	0.832105	0.906495
	N264	N	0.454037	0.922839	0.173384
	N265	N	0.524383	0.098250	0.173213
	N266	N	0.454421	0.098590	0.811241
	N267	N	0.524355	0.923946	0.811650
	N268	N	0.903281	0.190072	0.457641
	N269	N	0.075568	0.189800	0.528373
	N270	N	0.075574	0.831304	0.457087
	N271	N	0.902296	0.830096	0.528299
	N272	N	0.169470	0.475504	0.907249
	N273	N	0.171152	0.546461	0.079706
	N274	N	0.810827	0.475783	0.079193
	N275	N	0.810422	0.547280	0.906334
	O276	O	0.779883	1.001426	0.047724
	H277	H	0.798093	0.987775	0.041539
	H278	H	0.763768	1.003397	0.057314
	O279	O	-0.208037	-0.183515	1.185424
	H280	H	-0.194528	-0.185621	1.165282
	H281	H	-0.204320	-0.193820	1.193241
	O282	O	0.469085	0.672196	0.509992
	H283	H	0.468250	0.673834	0.515778
	H284	H	0.469203	0.663199	0.489088
	O285	O	0.282577	0.304078	0.701923
	H286	H	0.262379	0.297014	0.703083
	H287	H	0.264315	0.294269	0.700714
	O288	O	1.028268	-0.010183	1.112558
	H289	H	1.024565	-0.015997	1.100917
	H290	H	1.025409	-0.012928	1.110962
	O291	O	0.678006	0.593114	0.315588
	H292	H	0.686138	0.581640	0.318627
	H293	H	0.677421	0.561572	0.328868
	O294	O	-0.138110	-0.123522	0.018959
	H295	H	-0.148738	-0.108516	0.006591
	H296	H	-0.142769	-0.128132	0.027218
	O297	O	0.941988	-0.145868	0.175473
	H298	H	0.936906	-0.163555	0.189575
	H299	H	0.947494	-0.138669	0.160470
	O300	O	0.173123	-0.196941	-0.015049
	H301	H	0.195374	-0.209299	-0.028926
	H302	H	0.162988	-0.178144	-0.000130
	O303	O	-0.015101	0.087719	-0.026626
	H304	H	-0.019544	0.091945	-0.032519
	H305	H	-0.020411	0.102386	-0.021231
	O306	O	0.801817	0.177670	-0.017051
	H307	H	0.800502	0.167386	-0.006894
	H308	H	0.789590	0.185766	-0.011703
	O309	O	0.572379	0.567230	0.334563
	H310	H	0.559245	0.567713	0.318921
	H311	H	0.571445	0.552589	0.336136
	O312	O	-0.141704	-0.081896	-0.058688
	H313	H	-0.143053	-0.082473	-0.063998
	H314	H	-0.140766	-0.076856	-0.058625
	O315	O	0.271962	0.482086	0.692100
	H316	H	0.265549	0.469822	0.688593
	H317	H	0.247297	0.483425	0.704890
	O318	O	1.196882	0.989787	-0.218993
	H319	H	1.209533	0.991396	-0.226967
	H320	H	1.199908	0.990964	-0.211900
	O321	O	0.204613	1.062986	0.965766
	H322	H	0.205504	1.082054	0.975261
	H323	H	0.204578	1.063734	0.980455
	O324	O	0.983732	-0.082960	1.016266
	H325	H	0.971261	-0.076114	1.018873
	H326	H	0.972019	-0.086045	1.022063
	O327	O	0.431502	0.519948	0.303169
	H328	H	0.432864	0.510603	0.298808
	H329	H	0.444277	0.519082	0.303419
	O330	O	0.303652	0.557839	0.340111
	H331	H	0.275040	0.565896	0.317151
	H332	H	0.320945	0.579291	0.349548
	O333	O	0.695881	0.657351	0.530272
	H334	H	0.698164	0.665177	0.555819
	H335	H	0.713136	0.664325	0.528100
	O336	O	0.588208	0.499808	0.596712
	H337	H	0.579838	0.507249	0.601003
	H338	H	0.596762	0.510335	0.594232
	O339	O	0.276847	0.299179	0.531390
	H340	H	0.278688	0.303422	0.530492
	H341	H	0.261278	0.288451	0.524033
	O342	O	0.176707	1.197271	-0.195472
	H343	H	0.150537	1.189680	-0.173565
	H344	H	0.170350	1.168321	-0.178318
	O345	O	0.484756	0.316726	0.476255
	H346	H	0.493711	0.320103	0.486030
	H347	H	0.490526	0.319282	0.499708
	O348	O	0.561940	0.632002	0.414591
	H349	H	0.575792	0.645982	0.415721
	H350	H	0.572523	0.612630	0.416537
	O351	O	0.198350	0.221236	1.032020
	H352	H	0.183633	0.226231	1.043644
	H353	H	0.211455	0.241777	1.034271
	O354	O	0.942523	-0.049593	0.833148
	H355	H	0.928964	-0.034501	0.826301
	H356	H	0.936492	-0.050267	0.828979
	O357	O	0.697626	0.306302	0.455134
	H358	H	0.705134	0.323488	0.479825
	H359	H	0.692448	0.297961	0.470442
	O360	O	0.537640	0.583666	0.492525
	H361	H	0.538158	0.572334	0.482750
	H362	H	0.532800	0.580448	0.507361
	O363	O	0.291933	0.577651	0.537313
	H364	H	0.293384	0.572794	0.536470
	H365	H	0.287276	0.600850	0.527373
	O366	O	1.048994	0.065896	0.781843
	H367	H	1.044595	0.063857	0.789478
	H368	H	1.049589	0.081506	0.784717
	O369	O	0.000104	0.170528	0.967372
	H370	H	0.008104	0.150113	0.983233
	H371	H	-0.008219	0.171592	0.964329
	O372	O	0.182419	0.814048	0.805460
	H373	H	0.193189	0.847139	0.815986
	H374	H	0.153935	0.808830	0.819910
	O375	O	1.020634	-0.203036	-0.221838
	H376	H	1.034791	-0.211650	-0.231265
	H377	H	1.005719	-0.201315	-0.238287
	O378	O	0.992549	0.217527	1.198195
	H379	H	1.007411	0.225073	1.204073
	H380	H	1.004132	0.209693	1.206779
	O381	O	-0.228631	1.076553	-0.226473
	H382	H	-0.231235	1.093913	-0.240893
	H383	H	-0.240263	1.096616	-0.223821
	O384	O	0.048880	-0.017883	0.096411
	H385	H	0.037075	-0.027119	0.097740
	H386	H	0.064222	-0.015984	0.109749
	O387	O	0.175648	0.929772	1.099191
	H388	H	0.165790	0.933149	1.095395
	H389	H	0.177485	0.935077	1.102746
	O390	O	-0.217891	1.215678	0.816742
	H391	H	-0.202143	1.221492	0.850242
	H392	H	-0.246586	1.251037	0.796598
	O393	O	1.198944	0.214427	0.203014
	H394	H	1.198054	0.214988	0.189454
	H395	H	1.225364	0.229423	0.229016
	O396	O	0.451534	0.570744	0.665159
	H397	H	0.443366	0.582867	0.665478
	H398	H	0.438192	0.574592	0.663916
	O399	O	0.639802	0.513615	0.364934
	H400	H	0.653404	0.504232	0.342859
	H401	H	0.641190	0.497416	0.366984
	O402	O	1.595416	0.500275	0.465632
	H403	H	1.599189	0.504765	0.471823
	H404	H	1.592182	0.492197	0.458858
	O405	O	0.371449	0.708434	0.615771
	H406	H	0.380203	0.700148	0.596407
	H407	H	0.347777	0.718821	0.621839
	O408	O	0.913251	1.226375	0.815346
	H409	H	0.895555	1.243927	0.799268
	H410	H	0.891997	1.232917	0.805968
	O411	O	0.521386	0.682699	0.712753
	H412	H	0.496554	0.682897	0.710089
	H413	H	0.503805	0.700909	0.717259
	O414	O	-0.166962	-0.079355	0.208674
	H415	H	-0.161493	-0.094663	0.203600
	H416	H	-0.183286	-0.081998	0.229412
	O417	O	0.303225	0.328537	0.304031
	H418	H	0.308051	0.361691	0.315412
	H419	H	0.327401	0.334534	0.327266
	O420	O	0.816473	0.107823	1.075004
	H421	H	0.826307	0.099327	1.058763
	H422	H	0.825197	0.097485	1.076152
	O423	O	1.203199	1.040966	0.206414
	H424	H	1.214582	1.044365	0.225114
	H425	H	1.196057	1.052186	0.210391
	O426	O	0.295887	0.694117	0.307520
	H427	H	0.326593	0.695529	0.313112
	H428	H	0.304088	0.702675	0.299888
	O429	O	0.457949	0.719428	0.284606
	H430	H	0.488423	0.700100	0.286028
	H431	H	0.463279	0.734421	0.260894
	O432	O	0.980277	0.149952	0.931893
	H433	H	0.989379	0.160354	0.929087
	H434	H	0.979090	0.137086	0.941150
	O435	O	0.453538	0.297622	0.706629
	H436	H	0.421674	0.292947	0.718256
	H437	H	0.438646	0.286005	0.720887
	O438	O	0.518440	0.307692	0.286749
	H439	H	0.529097	0.288077	0.277065
	H440	H	0.521664	0.306324	0.298610
	O441	O	0.691917	0.305619	0.289157
	H442	H	0.702827	0.295712	0.333935
	H443	H	0.693654	0.283706	0.278879
	O444	O	0.538209	0.425584	0.643475
	H445	H	0.524195	0.420238	0.655926
	H446	H	0.517486	0.453907	0.648075
	O447	O	1.021909	-0.086138	1.075527
	H448	H	1.022587	-0.092724	1.058744
	H449	H	1.022173	-0.076054	1.054154
	O450	O	1.700036	0.560928	0.676889
	H451	H	1.708816	0.574010	0.688273
	H452	H	1.690410	0.584406	0.689649
	O453	O	0.553418	0.429010	0.542803
	H454	H	0.548746	0.437976	0.549721
	H455	H	0.550099	0.432040	0.556167
	O456	O	-0.109424	1.144848	1.161118
	H457	H	-0.132272	1.138245	1.166417
	H458	H	-0.098609	1.136413	1.168813
	O459	O	0.290610	0.432704	0.447968
	H460	H	0.288617	0.430858	0.430137
	H461	H	0.304782	0.449851	0.457263
	O462	O	0.692056	0.710684	0.696928
	H463	H	0.671051	0.710855	0.688899
	H464	H	0.675194	0.729686	0.717930
	O465	O	0.463873	0.457048	0.341850
	H466	H	0.489579	0.452749	0.349443
	H467	H	0.453717	0.439882	0.347332
	O468	O	0.298064	0.730126	0.484132
	H469	H	0.280168	0.755100	0.467551
	H470	H	0.305082	0.728203	0.464449
	O471	O	0.860744	0.806286	-0.134692
	H472	H	0.867876	0.824971	-0.143389
	H473	H	0.856916	0.811374	-0.125073
	O474	O	1.887220	0.913592	0.970882
	H475	H	1.889330	0.904740	0.970563
	H476	H	1.886738	0.914972	0.967498
	O477	O	0.683090	0.327177	0.677983
	H478	H	0.653872	0.344310	0.669302
	H479	H	0.679889	0.345217	0.672662
