data_Molecule from HDF5

_cell_length_a		16.596682
_cell_length_b		16.567163
_cell_length_c		16.539010
_cell_angle_alpha	90.068937
_cell_angle_beta	90.013171
_cell_angle_gamma	89.873706
_symmetry_space_group_name_H-M	'P 1'
_symmetry_Int_Tables_number		1

loop_
	_symmetry_equiv_pos_as_xyz
	x,y,z

loop_
	_atom_site_label
	_atom_site_type_symbol
	_atom_site_fract_x
	_atom_site_fract_y
	_atom_site_fract_z
	H0	H	0.394301	0.853211	0.716246
	H1	H	0.605282	0.163672	0.715802
	H2	H	0.605024	0.852526	0.273292
	H3	H	0.400381	0.167572	0.275398
	H4	H	0.722041	0.404781	0.836282
	H5	H	0.723110	0.614380	0.149306
	H6	H	0.278962	0.614709	0.837175
	H7	H	0.281723	0.405953	0.150997
	H8	H	0.844845	0.731018	0.389717
	H9	H	0.159994	0.726093	0.594850
	H10	H	0.846273	0.286040	0.600410
	H11	H	0.156012	0.286623	0.386640
	H12	H	0.846149	0.404183	0.714913
	H13	H	0.158432	0.612100	0.713572
	H14	H	0.843792	0.614084	0.272771
	H15	H	0.156423	0.404104	0.271147
	H16	H	0.395108	0.731089	0.837846
	H17	H	0.605313	0.729857	0.150358
	H18	H	0.604152	0.290005	0.835031
	H19	H	0.399607	0.290965	0.150555
	H20	H	0.722104	0.852190	0.389089
	H21	H	0.725198	0.162196	0.602040
	H22	H	0.281930	0.851325	0.595925
	H23	H	0.282535	0.167296	0.390735
	H24	H	0.896948	0.352786	0.213341
	H25	H	0.101542	0.667206	0.211048
	H26	H	0.106851	0.353606	0.770971
	H27	H	0.898335	0.666250	0.774121
	H28	H	0.220394	0.906131	0.335146
	H29	H	0.219938	0.112074	0.651341
	H30	H	0.778529	0.114837	0.337583
	H31	H	0.779288	0.901680	0.649188
	H32	H	0.344865	0.231075	0.887663
	H33	H	0.658254	0.228923	0.096121
	H34	H	0.344864	0.787796	0.099995
	H35	H	0.656213	0.786453	0.888150
	H36	H	0.344562	0.906508	0.214127
	H37	H	0.658109	0.114338	0.213691
	H38	H	0.344586	0.113898	0.772394
	H39	H	0.656054	0.901527	0.770587
	H40	H	0.894544	0.231146	0.337840
	H41	H	0.105004	0.229718	0.649767
	H42	H	0.105129	0.789405	0.335235
	H43	H	0.899056	0.789140	0.650534
	H44	H	0.222801	0.352775	0.886840
	H45	H	0.219243	0.666407	0.095511
	H46	H	0.780578	0.352609	0.097139
	H47	H	0.780305	0.665465	0.888587
	H48	H	0.414229	0.120747	0.585607
	H49	H	0.587503	0.896885	0.581093
	H50	H	0.596620	0.121965	0.409864
	H51	H	0.411954	0.897323	0.403428
	H52	H	0.587970	0.420514	0.104727
	H53	H	0.593234	0.593216	0.881133
	H54	H	0.413881	0.597615	0.104800
	H55	H	0.403994	0.423043	0.879043
	H56	H	0.115082	0.602060	0.398669
	H57	H	0.886640	0.599277	0.592200
	H58	H	0.113257	0.416236	0.577397
	H59	H	0.887665	0.421687	0.399193
	H60	H	0.109765	0.425419	0.577489
	H61	H	0.887400	0.608077	0.579998
	H62	H	0.112282	0.599891	0.406412
	H63	H	0.887868	0.415469	0.405842
	H64	H	0.411002	0.599627	0.106858
	H65	H	0.584108	0.594866	0.884234
	H66	H	0.591412	0.416025	0.106701
	H67	H	0.415828	0.423577	0.883201
	H68	H	0.593136	0.124327	0.397407
	H69	H	0.589468	0.897014	0.579087
	H70	H	0.412825	0.118891	0.578598
	H71	H	0.409431	0.896739	0.402435
	H72	H	0.914811	0.620062	0.080782
	H73	H	0.091156	0.396858	0.081520
	H74	H	0.090210	0.621679	0.903702
	H75	H	0.907811	0.396044	0.906007
	H76	H	0.098980	0.920022	0.607365
	H77	H	0.091809	0.095845	0.380179
	H78	H	0.916713	0.094939	0.603545
	H79	H	0.913682	0.923322	0.382310
	H80	H	0.614391	0.099111	0.902488
	H81	H	0.390856	0.095846	0.083912
	H82	H	0.611571	0.920192	0.080204
	H83	H	0.390576	0.923311	0.907694
	H84	H	0.613496	0.921085	0.085008
	H85	H	0.386112	0.102890	0.088240
	H86	H	0.612030	0.100458	0.906671
	H87	H	0.389293	0.922251	0.904174
	H88	H	0.913710	0.098234	0.605098
	H89	H	0.088954	0.099887	0.380637
	H90	H	0.089455	0.922216	0.604325
	H91	H	0.915048	0.917708	0.381002
	H92	H	0.089770	0.620532	0.904292
	H93	H	0.093858	0.395443	0.083931
	H94	H	0.908671	0.621952	0.078838
	H95	H	0.912491	0.395112	0.899309
	H96	H	0.407480	0.122629	0.582141
	H97	H	0.590085	0.895668	0.581080
	H98	H	0.584467	0.119544	0.405951
	H99	H	0.411981	0.896492	0.400722
	H100	H	0.594009	0.421328	0.105803
	H101	H	0.588972	0.602107	0.879615
	H102	H	0.409550	0.595783	0.105095
	H103	H	0.411258	0.413135	0.878216
	H104	H	0.112926	0.594690	0.400183
	H105	H	0.893096	0.594078	0.579105
	H106	H	0.113878	0.422181	0.585397
	H107	H	0.891069	0.423943	0.407398
	H108	H	0.910559	0.621892	0.084977
	H109	H	0.090233	0.395940	0.085056
	H110	H	0.090889	0.621172	0.904785
	H111	H	0.915615	0.398623	0.906079
	H112	H	0.091454	0.912338	0.607860
	H113	H	0.093663	0.100326	0.379277
	H114	H	0.912200	0.093585	0.604301
	H115	H	0.909747	0.919694	0.380141
	H116	H	0.612006	0.095712	0.904808
	H117	H	0.389120	0.103895	0.079733
	H118	H	0.613794	0.916522	0.082846
	H119	H	0.389534	0.920015	0.907064
	C120	C	0.379704	0.017358	0.614452
	C121	C	0.621996	0.999367	0.614323
	C122	C	0.623194	0.018124	0.372021
	C123	C	0.380413	1.001213	0.371791
	C124	C	0.622723	0.387723	0.001668
	C125	C	0.621376	0.629525	0.985000
	C126	C	0.379489	0.630120	0.002095
	C127	C	0.379338	0.388084	0.984405
	C128	C	0.009565	0.630828	0.371123
	C129	C	0.993316	0.630513	0.614603
	C130	C	0.010095	0.388342	0.613587
	C131	C	0.991820	0.387866	0.371388
	C132	C	0.879934	0.517589	0.113703
	C133	C	0.122221	0.500336	0.114575
	C134	C	0.122586	0.517741	0.871923
	C135	C	0.880090	0.500259	0.871825
	C136	C	0.123749	0.887153	0.501807
	C137	C	0.122616	0.130253	0.484289
	C138	C	0.880180	0.129326	0.501788
	C139	C	0.881105	0.887954	0.484947
	C140	C	0.509559	0.130523	0.871993
	C141	C	0.492498	0.131312	0.114627
	C142	C	0.509560	0.887721	0.115096
	C143	C	0.492322	0.887999	0.872783
	C144	C	0.377048	0.899751	0.674997
	C145	C	0.624414	0.116835	0.675544
	C146	C	0.624226	0.899666	0.312668
	C147	C	0.380600	0.120307	0.314331
	C148	C	0.682145	0.385920	0.883179
	C149	C	0.682113	0.632092	0.102648
	C150	C	0.319309	0.632852	0.884242
	C151	C	0.320969	0.386881	0.103274
	C152	C	0.891715	0.690702	0.370517
	C153	C	0.112206	0.687862	0.614736
	C154	C	0.893085	0.327079	0.617583
	C155	C	0.109050	0.326788	0.368276
	C156	C	0.892757	0.385827	0.674517
	C157	C	0.111604	0.630790	0.673318
	C158	C	0.891045	0.632588	0.312604
	C159	C	0.109585	0.385489	0.311294
	C160	C	0.376762	0.690849	0.884438
	C161	C	0.623888	0.689785	0.103135
	C162	C	0.623413	0.329193	0.882635
	C163	C	0.379596	0.329869	0.103336
	C164	C	0.682306	0.899576	0.370185
	C165	C	0.683620	0.116095	0.618973
	C166	C	0.320942	0.898861	0.615492
	C167	C	0.321970	0.119909	0.371336
	C168	C	0.878472	0.399478	0.173188
	C169	C	0.121442	0.619727	0.171976
	C170	C	0.124858	0.400052	0.811584
	C171	C	0.879021	0.618763	0.813224
	C172	C	0.181244	0.886835	0.382442
	C173	C	0.180867	0.131206	0.603542
	C174	C	0.819124	0.132711	0.384624
	C175	C	0.820609	0.884741	0.602456
	C176	C	0.391980	0.190995	0.869531
	C177	C	0.611139	0.189605	0.115130
	C178	C	0.391817	0.828108	0.117712
	C179	C	0.609543	0.826828	0.869751
	C180	C	0.391696	0.887153	0.174558
	C181	C	0.610968	0.132558	0.173612
	C182	C	0.391853	0.132428	0.812288
	C183	C	0.609370	0.884126	0.811511
	C184	C	0.876703	0.190619	0.384532
	C185	C	0.123717	0.189692	0.602739
	C186	C	0.123964	0.828813	0.382761
	C187	C	0.879766	0.828335	0.603129
	C188	C	0.182704	0.399983	0.869056
	C189	C	0.179865	0.619382	0.114721
	C190	C	0.820629	0.399651	0.115528
	C191	C	0.820279	0.618276	0.870007
	C192	C	0.404573	0.099356	0.589330
	C193	C	0.596322	0.917805	0.587932
	C194	C	0.598414	0.100404	0.397227
	C195	C	0.404411	0.918494	0.395398
	C196	C	0.598280	0.412065	0.084263
	C197	C	0.595891	0.604095	0.903051
	C198	C	0.404467	0.604873	0.084141
	C199	C	0.403380	0.412590	0.901696
	C200	C	0.092131	0.605988	0.394894
	C201	C	0.910379	0.607132	0.590648
	C202	C	0.091216	0.414059	0.587636
	C203	C	0.910170	0.413207	0.396885
	C204	C	0.904497	0.599902	0.088755
	C205	C	0.098613	0.417663	0.090488
	C206	C	0.097536	0.599806	0.897075
	C207	C	0.904931	0.417945	0.896577
	C208	C	0.100280	0.911200	0.584735
	C209	C	0.098541	0.105766	0.401654
	C210	C	0.906562	0.103068	0.583333
	C211	C	0.905755	0.913129	0.402675
	C212	C	0.591642	0.105554	0.897390
	C213	C	0.410058	0.107493	0.090955
	C214	C	0.591617	0.912271	0.089949
	C215	C	0.410951	0.914337	0.898941
	Zn216	Zn	0.500769	0.008703	0.743488
	Zn217	Zn	0.501824	0.010084	0.243094
	Zn218	Zn	0.751121	0.509031	-0.007270
	Zn219	Zn	0.250781	0.509005	-0.007007
	Zn220	Zn	0.002092	0.759170	0.493082
	Zn221	Zn	0.000671	0.259000	0.492890
	Zn222	Zn	0.001687	0.509124	0.743094
	Zn223	Zn	0.000175	0.509322	0.242874
	Zn224	Zn	0.500585	0.758728	-0.006199
	Zn225	Zn	0.501362	0.259862	-0.007067
	Zn226	Zn	0.751294	0.008206	0.493624
	Zn227	Zn	0.251210	0.009231	0.492833
	N228	N	0.412768	0.974457	0.674647
	N229	N	0.586757	0.043103	0.672723
	N230	N	0.588386	0.974490	0.313492
	N231	N	0.415961	0.045370	0.314247
	N232	N	0.681927	0.421586	0.958198
	N233	N	0.680782	0.595474	0.028173
	N234	N	0.320645	0.595905	0.958456
	N235	N	0.320452	0.422137	0.028141
	N236	N	0.966482	0.689741	0.405940
	N237	N	0.037511	0.687902	0.579005
	N238	N	0.966926	0.328332	0.580517
	N239	N	0.034776	0.328050	0.404989
	N240	N	0.966476	0.423157	0.672393
	N241	N	0.036311	0.596445	0.673834
	N242	N	0.965502	0.596133	0.312899
	N243	N	0.035562	0.422467	0.312739
	N244	N	0.413304	0.689323	0.958817
	N245	N	0.586902	0.688390	0.028839
	N246	N	0.587222	0.330123	0.957310
	N247	N	0.414811	0.330190	0.028228
	N248	N	0.681915	0.974349	0.406123
	N249	N	0.682156	0.042173	0.581744
	N250	N	0.322238	0.973062	0.578714
	N251	N	0.321403	0.044685	0.406144
	N252	N	0.914717	0.473926	0.172091
	N253	N	0.086622	0.544602	0.172337
	N254	N	0.088132	0.474381	0.813096
	N255	N	0.915450	0.544270	0.814061
	N256	N	0.181604	0.922228	0.457573
	N257	N	0.180588	0.095209	0.528759
	N258	N	0.821219	0.095258	0.458569
	N259	N	0.821317	0.920926	0.527893
	N260	N	0.466462	0.190109	0.905961
	N261	N	0.536565	0.189264	0.079185
	N262	N	0.466225	0.828240	0.081463
	N263	N	0.535665	0.828969	0.907033
	N264	N	0.466056	0.923284	0.173215
	N265	N	0.536513	0.096867	0.173332
	N266	N	0.465979	0.095776	0.813606
	N267	N	0.535451	0.921543	0.813184
	N268	N	0.913983	0.188806	0.458659
	N269	N	0.088296	0.189466	0.527625
	N270	N	0.089143	0.828732	0.458107
	N271	N	0.916872	0.830223	0.529077
	N272	N	0.181210	0.474135	0.906120
	N273	N	0.180562	0.544139	0.079916
	N274	N	0.821329	0.474208	0.079399
	N275	N	0.820616	0.543429	0.905393
	O276	O	-0.312013	1.322197	-0.320993
	H277	H	-0.313840	1.319376	-0.325837
	H278	H	-0.326376	1.333730	-0.343212
	O279	O	0.309286	0.498947	0.431426
	H280	H	0.315799	0.496914	0.432946
	H281	H	0.303403	0.504676	0.432934
	O282	O	0.793693	-0.202085	1.024551
	H283	H	0.780478	-0.204236	1.032856
	H284	H	0.783793	-0.194450	1.036116
	O285	O	0.713971	0.339501	0.282578
	H286	H	0.714807	0.361933	0.282229
	H287	H	0.737746	0.318787	0.257077
	O288	O	0.527775	0.725025	0.379174
	H289	H	0.520651	0.729956	0.371246
	H290	H	0.520446	0.726711	0.384113
	O291	O	0.433940	0.476594	0.278458
	H292	H	0.440631	0.467114	0.286874
	H293	H	0.405022	0.487251	0.277012
	O294	O	0.786709	0.218775	0.957260
	H295	H	0.782351	0.237153	0.961984
	H296	H	0.785112	0.212932	0.952826
	O297	O	0.291456	0.719353	0.335865
	H298	H	0.281649	0.733755	0.334114
	H299	H	0.289075	0.710563	0.354391
	O300	O	-0.780701	0.227330	0.113852
	H301	H	-0.762186	0.248279	0.135579
	H302	H	-0.793243	0.234209	0.107481
	O303	O	0.014518	0.137674	1.186262
	H304	H	0.014942	0.136545	1.184772
	H305	H	0.016580	0.122295	1.196894
	O306	O	0.629065	-0.352894	0.663503
	H307	H	0.624672	-0.341222	0.677532
	H308	H	0.635076	-0.330398	0.670677
	O309	O	0.656880	0.439892	0.286722
	H310	H	0.640651	0.448728	0.290214
	H311	H	0.672253	0.451848	0.266521
	O312	O	0.503938	0.470995	0.698485
	H313	H	0.504505	0.482958	0.701872
	H314	H	0.518811	0.467511	0.691897
	O315	O	0.478750	1.627530	0.514173
	H316	H	0.470384	1.638833	0.507222
	H317	H	0.474910	1.624825	0.532628
	O318	O	0.604937	0.556962	0.305249
	H319	H	0.587154	0.557052	0.305614
	H320	H	0.596944	0.558628	0.316210
	O321	O	0.368265	0.317702	0.389791
	H322	H	0.360855	0.305291	0.386249
	H323	H	0.371627	0.314226	0.386675
	O324	O	1.083865	1.222258	-0.083011
	H325	H	1.064547	1.210546	-0.080839
	H326	H	1.075307	1.214903	-0.081208
	O327	O	-0.212803	0.038840	0.814051
	H328	H	-0.225109	0.057091	0.798098
	H329	H	-0.215004	0.055475	0.811354
	O330	O	0.265685	0.264415	0.249258
	H331	H	0.268334	0.270961	0.249597
	H332	H	0.268726	0.253264	0.256906
	O333	O	-0.072023	0.005400	0.876203
	H334	H	-0.062536	0.017451	0.879209
	H335	H	-0.063193	0.014252	0.875903
	O336	O	1.227276	0.070927	0.935114
	H337	H	1.231691	0.077714	0.932818
	H338	H	1.228207	0.059130	0.945841
	O339	O	0.871659	-0.015585	1.217510
	H340	H	0.878266	-0.009149	1.216436
	H341	H	0.862390	-0.012590	1.229580
	O342	O	-0.706023	0.488684	0.701148
	H343	H	-0.709808	0.469175	0.687416
	H344	H	-0.710242	0.475911	0.718125
	O345	O	-0.154466	1.120376	1.010583
	H346	H	-0.148758	1.118916	1.013907
	H347	H	-0.146420	1.107012	0.994687
	O348	O	0.736608	0.540371	0.465818
	H349	H	0.740683	0.542067	0.460773
	H350	H	0.728767	0.542653	0.468132
	O351	O	0.961644	0.975622	0.133338
	H352	H	0.967212	0.969811	0.132462
	H353	H	0.964653	0.979812	0.131804
	O354	O	-0.177097	-0.230686	0.796873
	H355	H	-0.168724	-0.232428	0.790999
	H356	H	-0.147446	-0.216102	0.822708
	O357	O	1.409287	1.723750	0.277530
	H358	H	1.409912	1.743513	0.259098
	H359	H	1.388547	1.713966	0.284721
	O360	O	0.384212	0.320057	0.486001
	H361	H	0.389922	0.327671	0.503393
	H362	H	0.362018	0.309402	0.484194
	O363	O	-0.214367	-0.131712	0.203339
	H364	H	-0.218676	-0.110297	0.209416
	H365	H	-0.238416	-0.160227	0.226525
	O366	O	0.520519	0.580369	0.496094
	H367	H	0.514833	0.578549	0.489198
	H368	H	0.518049	0.576086	0.513089
	O369	O	1.218682	-0.023974	-0.220435
	H370	H	1.220398	-0.049335	-0.214345
	H371	H	1.245909	-0.031325	-0.235852
	O372	O	1.044626	0.793561	-0.218597
	H373	H	1.024594	0.776852	-0.223714
	H374	H	1.026399	0.796726	-0.213838
	O375	O	0.988150	0.124374	0.132408
	H376	H	0.986118	0.109379	0.137932
	H377	H	0.997464	0.127763	0.140946
	O378	O	0.225431	0.950138	1.042492
	H379	H	0.222865	0.946758	1.032075
	H380	H	0.230399	0.928164	1.051800
	O381	O	0.558354	0.298090	1.296911
	H382	H	0.574315	0.297650	1.286140
	H383	H	0.578981	0.290339	1.294728
	O384	O	1.068362	-0.015856	1.123742
	H385	H	1.075827	-0.018265	1.115177
	H386	H	1.073462	-0.014798	1.128135
	O387	O	1.223576	0.795197	-0.038439
	H388	H	1.242510	0.769840	-0.046195
	H389	H	1.225052	0.796582	-0.073572
	O390	O	0.487779	0.697897	0.695897
	H391	H	0.493152	0.708656	0.716863
	H392	H	0.501792	0.687725	0.702298
	O393	O	0.315646	0.343768	0.672119
	H394	H	0.318415	0.334758	0.678261
	H395	H	0.350079	0.333640	0.665990
	O396	O	0.418045	1.676322	1.507475
	H397	H	0.432434	1.672502	1.524497
	H398	H	0.421729	1.676288	1.513955
	O399	O	0.210916	-0.195918	0.787198
	H400	H	0.191248	-0.215020	0.770071
	H401	H	0.197656	-0.197559	0.778734
	O402	O	0.465860	0.295434	0.706082
	H403	H	0.476676	0.288590	0.703155
	H404	H	0.478675	0.293513	0.713069
	O405	O	1.000146	0.219434	0.787180
	H406	H	0.995047	0.206286	0.785898
	H407	H	1.005158	0.235467	0.775999
	O408	O	-0.288327	-0.532452	-0.396640
	H409	H	-0.283033	-0.551087	-0.410470
	H410	H	-0.286823	-0.527908	-0.402717
	O411	O	0.441593	0.620091	0.687413
	H412	H	0.428333	0.614340	0.681709
	H413	H	0.455291	0.618100	0.696772
	O414	O	0.780146	-0.029397	0.967258
	H415	H	0.791168	-0.025284	0.971213
	H416	H	0.777733	-0.021885	0.972689
	O417	O	0.803914	0.214679	0.190690
	H418	H	0.815627	0.191766	0.180560
	H419	H	0.816566	0.209978	0.175138
	O420	O	0.332712	0.729242	0.480723
	H421	H	0.335569	0.731312	0.510106
	H422	H	0.317875	0.736789	0.484469
	O423	O	0.099444	-0.065153	1.057849
	H424	H	0.080095	-0.053499	1.064859
	H425	H	0.117711	-0.051036	1.079154
	O426	O	0.544293	0.284735	0.544076
	H427	H	0.547807	0.289402	0.537304
	H428	H	0.531056	0.280343	0.536498
	O429	O	0.093548	0.226470	1.075323
	H430	H	0.101451	0.246552	1.069919
	H431	H	0.086771	0.222356	1.084477
	O432	O	0.705882	0.296018	0.465866
	H433	H	0.708466	0.286850	0.453104
	H434	H	0.716315	0.295101	0.451016
	O435	O	0.277515	0.547519	0.270439
	H436	H	0.247131	0.544805	0.240196
	H437	H	0.282975	0.564447	0.282080
	O438	O	-0.099706	-0.204308	0.206047
	H439	H	-0.109870	-0.214901	0.217681
	H440	H	-0.115903	-0.222275	0.202990
	O441	O	0.341260	0.672723	0.644017
	H442	H	0.356605	0.658599	0.630314
	H443	H	0.351843	0.660824	0.643567
	O444	O	0.972128	0.126824	-0.066727
	H445	H	0.987692	0.127664	-0.064167
	H446	H	0.989448	0.129571	-0.073012
	O447	O	-0.308219	1.532386	0.711053
	H448	H	-0.298910	1.517373	0.699974
	H449	H	-0.293000	1.549956	0.716915
	O450	O	-0.212104	1.220327	0.782365
	H451	H	-0.186717	1.222543	0.787697
	H452	H	-0.224991	1.237591	0.781614
	O453	O	0.514908	0.464865	0.416825
	H454	H	0.518154	0.476757	0.421366
	H455	H	0.508830	0.467687	0.407469
	O456	O	-0.005905	-0.094994	1.014074
	H457	H	-0.013888	-0.081858	1.007019
	H458	H	0.014410	-0.101630	1.018859
	O459	O	1.013092	0.848863	0.045641
	H460	H	1.026465	0.848663	0.043391
	H461	H	1.003330	0.837937	0.046269
	O462	O	0.378277	0.396715	0.535048
	H463	H	0.381980	0.406428	0.519770
	H464	H	0.374288	0.374446	0.528775
	O465	O	0.687599	-0.305477	-0.690269
	H466	H	0.666357	-0.316934	-0.672548
	H467	H	0.672980	-0.321469	-0.669932
	O468	O	0.569452	0.490977	0.506836
	H469	H	0.591530	0.488064	0.513997
	H470	H	0.562402	0.485243	0.498253
	O471	O	-0.030264	0.075617	0.847900
	H472	H	-0.023566	0.069178	0.837758
	H473	H	-0.025505	0.062105	0.855763
	O474	O	-0.146821	0.897925	0.786969
	H475	H	-0.124314	0.919297	0.785783
	H476	H	-0.161170	0.913454	0.797948
	O477	O	1.164681	0.085457	1.133974
	H478	H	1.177590	0.089130	1.143130
	H479	H	1.172191	0.077391	1.113196
	O480	O	0.710139	0.720150	0.584433
	H481	H	0.717716	0.727406	0.605723
	H482	H	0.725707	0.706632	0.586914
	O483	O	1.191082	1.221940	0.797235
	H484	H	1.188126	1.232517	0.805208
	H485	H	1.183816	1.206481	0.821502
	O486	O	1.188723	-0.178995	1.178512
	H487	H	1.163710	-0.161101	1.169402
	H488	H	1.193035	-0.189092	1.178926
	O489	O	0.993082	0.854112	-0.067055
	H490	H	0.995780	0.861822	-0.059568
	H491	H	0.982189	0.853359	-0.054310
