data_Molecule from HDF5

_cell_length_a		16.187005
_cell_length_b		16.411534
_cell_length_c		16.130646
_cell_angle_alpha	90.501861
_cell_angle_beta	89.709905
_cell_angle_gamma	90.023123
_symmetry_space_group_name_H-M	'P 1'
_symmetry_Int_Tables_number		1

loop_
	_symmetry_equiv_pos_as_xyz
	x,y,z

loop_
	_atom_site_label
	_atom_site_type_symbol
	_atom_site_fract_x
	_atom_site_fract_y
	_atom_site_fract_z
	H0	H	0.399390	0.838066	0.713319
	H1	H	0.601847	0.161926	0.712977
	H2	H	0.601943	0.838036	0.275092
	H3	H	0.402110	0.161734	0.282353
	H4	H	0.718836	0.396673	0.830588
	H5	H	0.714597	0.599731	0.158657
	H6	H	0.290427	0.597647	0.830597
	H7	H	0.287206	0.402415	0.157970
	H8	H	0.838755	0.714460	0.388840
	H9	H	0.163355	0.717447	0.596978
	H10	H	0.838534	0.281017	0.594315
	H11	H	0.165983	0.278687	0.388902
	H12	H	0.837883	0.399023	0.708372
	H13	H	0.166813	0.596529	0.705218
	H14	H	0.837196	0.592473	0.279910
	H15	H	0.167419	0.398793	0.277071
	H16	H	0.399254	0.715472	0.832527
	H17	H	0.605049	0.718094	0.157247
	H18	H	0.608695	0.277404	0.833121
	H19	H	0.397993	0.284457	0.158182
	H20	H	0.717515	0.837076	0.390964
	H21	H	0.719635	0.160524	0.596094
	H22	H	0.284056	0.837218	0.595140
	H23	H	0.282912	0.159613	0.394857
	H24	H	0.902338	0.335247	0.206096
	H25	H	0.101407	0.660065	0.210828
	H26	H	0.102960	0.335560	0.775828
	H27	H	0.901469	0.660088	0.776488
	H28	H	0.217878	0.896725	0.329073
	H29	H	0.212950	0.098888	0.657874
	H30	H	0.788543	0.094676	0.328212
	H31	H	0.784981	0.898367	0.656379
	H32	H	0.341095	0.217900	0.891962
	H33	H	0.662881	0.220952	0.102956
	H34	H	0.339688	0.781808	0.098725
	H35	H	0.664995	0.780017	0.889064
	H36	H	0.337137	0.902925	0.208026
	H37	H	0.665336	0.099150	0.210143
	H38	H	0.338238	0.100782	0.782092
	H39	H	0.666251	0.900034	0.777337
	H40	H	0.898182	0.213435	0.330180
	H41	H	0.104940	0.216917	0.655213
	H42	H	0.102785	0.780619	0.328766
	H43	H	0.895598	0.780445	0.655377
	H44	H	0.220775	0.337619	0.891168
	H45	H	0.218772	0.661102	0.095689
	H46	H	0.782498	0.337822	0.094604
	H47	H	0.784346	0.660041	0.892533
	H48	H	0.394385	0.115408	0.583295
	H49	H	0.590718	0.886554	0.585741
	H50	H	0.603822	0.118765	0.396561
	H51	H	0.417783	0.886616	0.401245
	H52	H	0.585436	0.410021	0.108737
	H53	H	0.585976	0.585814	0.880344
	H54	H	0.410401	0.587142	0.111492
	H55	H	0.424892	0.400217	0.878665
	H56	H	0.116238	0.593110	0.411386
	H57	H	0.884650	0.592316	0.584035
	H58	H	0.116982	0.407566	0.577463
	H59	H	0.891707	0.409532	0.412519
	H60	H	0.120180	0.407832	0.587916
	H61	H	0.886398	0.586792	0.582673
	H62	H	0.115853	0.580275	0.402032
	H63	H	0.883680	0.409582	0.387535
	H64	H	0.415727	0.594428	0.111561
	H65	H	0.591760	0.597980	0.875091
	H66	H	0.594234	0.404180	0.114165
	H67	H	0.404048	0.400933	0.872465
	H68	H	0.583566	0.112718	0.399779
	H69	H	0.592908	0.884614	0.583410
	H70	H	0.408494	0.117745	0.601823
	H71	H	0.405487	0.884865	0.409530
	H72	H	0.907622	0.616283	0.095322
	H73	H	0.098507	0.382989	0.082993
	H74	H	0.107040	0.617706	0.900834
	H75	H	0.912411	0.384246	0.898756
	H76	H	0.090147	0.913128	0.608015
	H77	H	0.088834	0.083169	0.378167
	H78	H	0.906578	0.088329	0.611037
	H79	H	0.917638	0.898208	0.375300
	H80	H	0.622684	0.094875	0.899003
	H81	H	0.385213	0.087993	0.091157
	H82	H	0.617932	0.906819	0.081843
	H83	H	0.387569	0.908431	0.908203
	H84	H	0.617583	0.909995	0.085513
	H85	H	0.381027	0.099870	0.089741
	H86	H	0.616958	0.093748	0.915747
	H87	H	0.385253	0.907079	0.903594
	H88	H	0.913337	0.087059	0.608644
	H89	H	0.090083	0.091630	0.374784
	H90	H	0.085092	0.901066	0.610262
	H91	H	0.903295	0.900580	0.372364
	H92	H	0.091544	0.614020	0.889684
	H93	H	0.094786	0.382876	0.084200
	H94	H	0.918738	0.610539	0.085065
	H95	H	0.914728	0.386386	0.905025
	H96	H	0.417591	0.109859	0.581670
	H97	H	0.593842	0.884709	0.586440
	H98	H	0.598429	0.111659	0.415624
	H99	H	0.405281	0.880656	0.394056
	H100	H	0.595808	0.415583	0.110479
	H101	H	0.600336	0.586626	0.875812
	H102	H	0.406998	0.595687	0.115271
	H103	H	0.413879	0.418490	0.880670
	H104	H	0.121196	0.593791	0.396088
	H105	H	0.884113	0.587904	0.587596
	H106	H	0.119732	0.399437	0.582387
	H107	H	0.881559	0.388124	0.401783
	H108	H	0.903602	0.612581	0.079824
	H109	H	0.094329	0.384538	0.081350
	H110	H	0.091153	0.610303	0.909079
	H111	H	0.908313	0.384183	0.903514
	H112	H	0.097151	0.903412	0.612310
	H113	H	0.096918	0.085796	0.374760
	H114	H	0.912616	0.094043	0.610322
	H115	H	0.911685	0.911433	0.377727
	H116	H	0.615836	0.079926	0.904433
	H117	H	0.388207	0.093722	0.081178
	H118	H	0.620452	0.905539	0.086849
	H119	H	0.385972	0.904320	0.907443
	C120	C	0.377548	0.007802	0.618480
	C121	C	0.623484	0.991211	0.616433
	C122	C	0.624236	0.007432	0.372077
	C123	C	0.379630	0.990692	0.372978
	C124	C	0.623609	0.377588	0.003443
	C125	C	0.623127	0.620960	0.985267
	C126	C	0.381708	0.620998	0.004296
	C127	C	0.382347	0.377870	0.985390
	C128	C	0.009966	0.617666	0.372726
	C129	C	0.992957	0.619225	0.614444
	C130	C	0.010859	0.375723	0.613417
	C131	C	0.994146	0.373693	0.370086
	C132	C	0.879798	0.506710	0.115456
	C133	C	0.124918	0.490435	0.114033
	C134	C	0.125770	0.506982	0.870121
	C135	C	0.880633	0.490658	0.871852
	C136	C	0.122179	0.875668	0.501856
	C137	C	0.121768	0.117897	0.484221
	C138	C	0.881220	0.118488	0.501726
	C139	C	0.879775	0.875415	0.483539
	C140	C	0.511015	0.120001	0.875831
	C141	C	0.492579	0.123041	0.117564
	C142	C	0.510680	0.878576	0.115671
	C143	C	0.493918	0.876953	0.873849
	C144	C	0.379229	0.886229	0.674675
	C145	C	0.622050	0.113290	0.674047
	C146	C	0.622248	0.886279	0.313798
	C147	C	0.381661	0.112885	0.319028
	C148	C	0.680961	0.377127	0.880068
	C149	C	0.678000	0.619884	0.109125
	C150	C	0.326943	0.618233	0.880247
	C151	C	0.324890	0.381336	0.108968
	C152	C	0.887359	0.674890	0.371210
	C153	C	0.115004	0.677626	0.615067
	C154	C	0.887554	0.319420	0.613682
	C155	C	0.117185	0.317481	0.369938
	C156	C	0.887131	0.378276	0.670335
	C157	C	0.116884	0.617325	0.668967
	C158	C	0.886466	0.614190	0.317054
	C159	C	0.117934	0.377233	0.314231
	C160	C	0.381276	0.676985	0.881299
	C161	C	0.623086	0.678655	0.108442
	C162	C	0.626187	0.317793	0.881283
	C163	C	0.380527	0.323039	0.109010
	C164	C	0.679906	0.885681	0.371476
	C165	C	0.680704	0.112527	0.615770
	C166	C	0.321643	0.885909	0.616094
	C167	C	0.322553	0.112012	0.375183
	C168	C	0.881553	0.384246	0.169480
	C169	C	0.122373	0.611675	0.172454
	C170	C	0.123480	0.384752	0.813905
	C171	C	0.881552	0.611615	0.814975
	C172	C	0.179709	0.876734	0.378454
	C173	C	0.176116	0.118134	0.608356
	C174	C	0.825509	0.115638	0.377871
	C175	C	0.822678	0.878052	0.607164
	C176	C	0.389216	0.178169	0.874389
	C177	C	0.614586	0.181227	0.120181
	C178	C	0.388011	0.821370	0.116703
	C179	C	0.616129	0.819294	0.871118
	C180	C	0.386668	0.881587	0.171212
	C181	C	0.615876	0.120535	0.173421
	C182	C	0.388020	0.119585	0.819421
	C183	C	0.616719	0.878657	0.815093
	C184	C	0.880309	0.174458	0.378624
	C185	C	0.122545	0.177410	0.606707
	C186	C	0.122322	0.818963	0.378136
	C187	C	0.878045	0.819372	0.606602
	C188	C	0.182572	0.385849	0.871020
	C189	C	0.180369	0.612395	0.114647
	C190	C	0.821665	0.385819	0.114130
	C191	C	0.823222	0.611676	0.872911
	C192	C	0.400057	0.092307	0.595673
	C193	C	0.599450	0.906932	0.592274
	C194	C	0.601710	0.092414	0.396783
	C195	C	0.402666	0.906060	0.395238
	C196	C	0.598807	0.402519	0.089018
	C197	C	0.599586	0.597077	0.899224
	C198	C	0.404423	0.598878	0.090427
	C199	C	0.407085	0.400076	0.899712
	C200	C	0.095700	0.595401	0.396328
	C201	C	0.907170	0.595913	0.591541
	C202	C	0.096475	0.398148	0.589556
	C203	C	0.907970	0.395867	0.393588
	C204	C	0.903201	0.591052	0.093340
	C205	C	0.102481	0.405504	0.089989
	C206	C	0.103356	0.591926	0.893144
	C207	C	0.904783	0.406579	0.895532
	C208	C	0.097720	0.898943	0.587758
	C209	C	0.098820	0.093679	0.398328
	C210	C	0.904411	0.096308	0.587696
	C211	C	0.903604	0.897044	0.397543
	C212	C	0.596507	0.096321	0.899452
	C213	C	0.407105	0.100444	0.094297
	C214	C	0.596572	0.900820	0.091824
	C215	C	0.408454	0.899926	0.898989
	Zn216	Zn	0.501459	0.000014	0.746546
	Zn217	Zn	0.501149	0.000272	0.243643
	Zn218	Zn	0.750221	0.499713	-0.005748
	Zn219	Zn	0.255232	0.499688	-0.006664
	Zn220	Zn	0.000593	0.747119	0.493234
	Zn221	Zn	0.002025	0.245798	0.492252
	Zn222	Zn	0.002542	0.498124	0.742095
	Zn223	Zn	0.002333	0.496968	0.243178
	Zn224	Zn	0.502293	0.748286	-0.004920
	Zn225	Zn	0.502706	0.249337	-0.004386
	Zn226	Zn	0.753174	-0.001718	0.493131
	Zn227	Zn	0.249689	-0.001087	0.494548
	N228	N	0.413108	0.962925	0.676336
	N229	N	0.587081	0.036958	0.674315
	N230	N	0.588406	0.963261	0.313996
	N231	N	0.416374	0.036500	0.317691
	N232	N	0.679485	0.413543	0.956947
	N233	N	0.677949	0.584615	0.031470
	N234	N	0.326924	0.584114	0.957837
	N235	N	0.325865	0.414739	0.031034
	N236	N	0.965267	0.677189	0.405038
	N237	N	0.036827	0.679077	0.582120
	N238	N	0.965514	0.317741	0.579018
	N239	N	0.038956	0.315179	0.403798
	N240	N	0.964611	0.412543	0.670282
	N241	N	0.039708	0.581880	0.669075
	N242	N	0.963602	0.579252	0.317886
	N243	N	0.040449	0.411351	0.314203
	N244	N	0.414399	0.678977	0.959438
	N245	N	0.589861	0.679609	0.030263
	N246	N	0.591271	0.317912	0.959274
	N247	N	0.415323	0.320526	0.031168
	N248	N	0.681246	0.962184	0.406785
	N249	N	0.681750	0.035668	0.580779
	N250	N	0.320309	0.962498	0.581977
	N251	N	0.321203	0.035007	0.408176
	N252	N	0.917267	0.460368	0.170560
	N253	N	0.088559	0.534782	0.172001
	N254	N	0.089054	0.461170	0.813163
	N255	N	0.916426	0.535317	0.814166
	N256	N	0.179641	0.911497	0.456354
	N257	N	0.175839	0.081793	0.531164
	N258	N	0.825972	0.081369	0.455312
	N259	N	0.823621	0.912158	0.529748
	N260	N	0.466684	0.178692	0.908904
	N261	N	0.537014	0.182919	0.086045
	N262	N	0.466114	0.819312	0.082887
	N263	N	0.538646	0.817936	0.906686
	N264	N	0.463958	0.916509	0.170659
	N265	N	0.539098	0.085120	0.172185
	N266	N	0.464933	0.083809	0.820202
	N267	N	0.539624	0.913850	0.816573
	N268	N	0.914038	0.176675	0.456671
	N269	N	0.089227	0.177164	0.528614
	N270	N	0.087597	0.817988	0.456034
	N271	N	0.912855	0.817544	0.528710
	N272	N	0.184093	0.462934	0.905390
	N273	N	0.182178	0.535932	0.079075
	N274	N	0.820419	0.462834	0.081405
	N275	N	0.822347	0.535302	0.907413
	O276	O	-0.079646	-0.119584	0.014060
	H277	H	-0.080428	-0.103281	0.015902
	H278	H	-0.095483	-0.121067	0.023847
	O279	O	0.474225	0.558152	0.564245
	H280	H	0.465320	0.540554	0.565215
	H281	H	0.466075	0.560183	0.554567
	O282	O	1.145330	0.038074	-0.172436
	H283	H	1.147851	0.003804	-0.179865
	H284	H	1.165861	0.032080	-0.191162
	O285	O	-0.008617	1.023093	-0.055574
	H286	H	0.018129	1.027588	-0.060801
	H287	H	-0.023994	1.025306	-0.061376
	O288	O	0.603682	0.622533	0.426234
	H289	H	0.607290	0.640053	0.437159
	H290	H	0.605830	0.608352	0.450436
	O291	O	0.545705	0.376018	0.456998
	H292	H	0.546364	0.388642	0.448482
	H293	H	0.557701	0.372939	0.452374
	O294	O	0.895540	1.090494	0.920752
	H295	H	0.887598	1.085472	0.913365
	H296	H	0.904514	1.076976	0.922281
	O297	O	0.502898	-0.601203	-0.348571
	H298	H	0.520786	-0.610091	-0.363345
	H299	H	0.493625	-0.607967	-0.338989
	O300	O	0.450709	0.481370	0.549756
	H301	H	0.436865	0.482553	0.552648
	H302	H	0.444052	0.476769	0.528753
	O303	O	-0.088298	1.038585	0.840490
	H304	H	-0.081391	1.053685	0.843542
	H305	H	-0.074990	1.032405	0.850534
	O306	O	-0.347698	1.408241	0.330986
	H307	H	-0.346727	1.408499	0.334296
	H308	H	-0.333804	1.415147	0.337045
	O309	O	1.026465	-0.109851	-0.198609
	H310	H	1.011217	-0.112408	-0.186774
	H311	H	1.027912	-0.127315	-0.213955
	O312	O	-0.144646	0.115209	0.964026
	H313	H	-0.137300	0.113253	0.961091
	H314	H	-0.144960	0.108453	0.951970
	O315	O	-0.051601	1.060236	0.915250
	H316	H	-0.054529	1.055866	0.901658
	H317	H	-0.049365	1.057168	0.936426
	O318	O	0.426020	0.570546	0.597106
	H319	H	0.419296	0.575471	0.600036
	H320	H	0.428366	0.558134	0.601833
	O321	O	0.419248	0.380375	0.454208
	H322	H	0.411878	0.383417	0.443663
	H323	H	0.422316	0.384626	0.457684
	O324	O	0.474829	0.577660	0.386030
	H325	H	0.485554	0.578870	0.374518
	H326	H	0.491377	0.574354	0.390092
	O327	O	0.155546	1.068978	1.014947
	H328	H	0.161745	1.055689	1.005284
	H329	H	0.153469	1.064206	1.014226
	O330	O	0.572064	0.452518	0.474455
	H331	H	0.562641	0.457443	0.476695
	H332	H	0.580515	0.474211	0.485833
	O333	O	0.141083	1.006892	1.132709
	H334	H	0.150075	1.004330	1.124493
	H335	H	0.132032	1.015478	1.129277
	O336	O	0.835795	0.887118	1.076833
	H337	H	0.833503	0.900818	1.090895
	H338	H	0.831166	0.885033	1.083369
	O339	O	0.642692	0.573665	0.629151
	H340	H	0.660230	0.580723	0.644566
	H341	H	0.632405	0.569595	0.625600
	O342	O	1.053374	0.113582	0.173300
	H343	H	1.058351	0.123966	0.186199
	H344	H	1.071675	0.100531	0.161863
	O345	O	0.413826	0.524423	0.400377
	H346	H	0.412079	0.531898	0.385147
	H347	H	0.423286	0.522266	0.386681
	O348	O	1.000743	1.066494	1.025404
	H349	H	1.014757	1.055792	1.022377
	H350	H	1.003372	1.076105	1.028648
	O351	O	1.033349	0.886135	0.152669
	H352	H	1.035392	0.904887	0.158635
	H353	H	1.022219	0.890751	0.157281
	O354	O	0.500222	0.603238	0.341457
	H355	H	0.503652	0.607638	0.346797
	H356	H	0.499091	0.606615	0.347942
	O357	O	0.381471	0.403572	0.492756
	H358	H	0.387992	0.408322	0.486509
	H359	H	0.388764	0.405767	0.473817
	O360	O	0.061190	0.147757	0.061095
	H361	H	0.066479	0.146846	0.050185
	H362	H	0.060726	0.147468	0.072662
	O363	O	0.430068	0.582054	0.539827
	H364	H	0.438905	0.571077	0.536057
	H365	H	0.423676	0.589070	0.556923
	O366	O	-0.006334	0.130493	0.932336
	H367	H	-0.003772	0.128676	0.931954
	H368	H	-0.002267	0.138656	0.931220
	O369	O	0.469554	0.538056	0.454384
	H370	H	0.455049	0.532456	0.477786
	H371	H	0.459672	0.529131	0.440852
	O372	O	0.473753	0.415098	0.583943
	H373	H	0.468987	0.428849	0.578275
	H374	H	0.472815	0.427922	0.584002
	O375	O	0.510081	0.365948	0.460754
	H376	H	0.514464	0.367884	0.452288
	H377	H	0.495914	0.361587	0.469594
	O378	O	0.678168	0.440718	0.387763
	H379	H	0.686698	0.449342	0.387640
	H380	H	0.680071	0.439799	0.380834
	O381	O	0.538600	0.534713	0.538852
	H382	H	0.518985	0.526485	0.541594
	H383	H	0.535544	0.518656	0.540440
	O384	O	-0.019204	1.097233	-0.073623
	H385	H	-0.021619	1.107159	-0.078225
	H386	H	-0.021632	1.104997	-0.091976
	O387	O	0.879541	-0.032399	1.034237
	H388	H	0.873972	-0.018923	1.036762
	H389	H	0.890861	-0.012477	1.033593
	O390	O	0.047503	0.855547	0.065304
	H391	H	0.039612	0.857509	0.060760
	H392	H	0.030794	0.854672	0.059526
	O393	O	1.119442	0.851133	-0.041677
	H394	H	1.131437	0.838002	-0.033743
	H395	H	1.097527	0.853601	-0.025394
	O396	O	1.181266	0.025159	0.994810
	H397	H	1.197140	0.034360	0.979172
	H398	H	1.175090	0.017225	0.987762
	O399	O	0.153351	0.842156	0.821882
	H400	H	0.120164	0.831865	0.808343
	H401	H	0.153550	0.834386	0.858242
	O402	O	0.866439	0.843250	1.076697
	H403	H	0.859654	0.841604	1.071874
	H404	H	0.858225	0.853841	1.093010
	O405	O	0.605708	0.561592	0.621488
	H406	H	0.604788	0.569059	0.625483
	H407	H	0.608530	0.553550	0.630312
