data_Molecule from HDF5

_cell_length_a		16.236415
_cell_length_b		16.244280
_cell_length_c		16.162980
_cell_angle_alpha	89.757350
_cell_angle_beta	89.874392
_cell_angle_gamma	89.590618
_symmetry_space_group_name_H-M	'P 1'
_symmetry_Int_Tables_number		1

loop_
	_symmetry_equiv_pos_as_xyz
	x,y,z

loop_
	_atom_site_label
	_atom_site_type_symbol
	_atom_site_fract_x
	_atom_site_fract_y
	_atom_site_fract_z
	H0	H	0.407695	0.835581	0.714455
	H1	H	0.600361	0.165263	0.712417
	H2	H	0.604946	0.836447	0.287448
	H3	H	0.406626	0.163716	0.286491
	H4	H	0.718835	0.402436	0.834502
	H5	H	0.716832	0.595789	0.164812
	H6	H	0.291759	0.598933	0.834441
	H7	H	0.291837	0.401266	0.164249
	H8	H	0.841721	0.717216	0.398847
	H9	H	0.168873	0.710999	0.598069
	H10	H	0.840354	0.285627	0.600367
	H11	H	0.168685	0.283673	0.402401
	H12	H	0.840311	0.401989	0.714960
	H13	H	0.169698	0.593647	0.711337
	H14	H	0.840631	0.599217	0.285347
	H15	H	0.169005	0.398724	0.285716
	H16	H	0.406152	0.715741	0.834971
	H17	H	0.602675	0.712191	0.164508
	H18	H	0.605247	0.285688	0.834940
	H19	H	0.408157	0.286897	0.164449
	H20	H	0.721927	0.837834	0.400594
	H21	H	0.717622	0.165174	0.598702
	H22	H	0.291792	0.835982	0.600267
	H23	H	0.289367	0.163190	0.400686
	H24	H	0.908587	0.335315	0.213844
	H25	H	0.103166	0.663043	0.213879
	H26	H	0.103617	0.334300	0.787919
	H27	H	0.906547	0.663673	0.786165
	H28	H	0.221469	0.900044	0.336016
	H29	H	0.216022	0.095778	0.665542
	H30	H	0.790940	0.100658	0.335194
	H31	H	0.790979	0.901308	0.664988
	H32	H	0.341054	0.215824	0.901511
	H33	H	0.669346	0.211363	0.097147
	H34	H	0.340776	0.786901	0.099319
	H35	H	0.669564	0.786589	0.902207
	H36	H	0.341321	0.902030	0.215685
	H37	H	0.669275	0.095602	0.212633
	H38	H	0.339568	0.099000	0.787429
	H39	H	0.669064	0.901092	0.785709
	H40	H	0.905267	0.215522	0.336167
	H41	H	0.101450	0.211312	0.664376
	H42	H	0.104908	0.785573	0.334874
	H43	H	0.907527	0.785516	0.665070
	H44	H	0.221261	0.335880	0.901404
	H45	H	0.218626	0.663377	0.098457
	H46	H	0.790779	0.336064	0.100916
	H47	H	0.789078	0.662747	0.898670
	H48	H	0.410757	0.114869	0.584703
	H49	H	0.605216	0.881603	0.595465
	H50	H	0.608377	0.120586	0.407539
	H51	H	0.412791	0.883301	0.412584
	H52	H	0.598144	0.420217	0.113497
	H53	H	0.601479	0.589446	0.881702
	H54	H	0.413695	0.586961	0.114783
	H55	H	0.421729	0.404242	0.882978
	H56	H	0.121476	0.593738	0.410896
	H57	H	0.888398	0.583421	0.598221
	H58	H	0.124301	0.400265	0.597670
	H59	H	0.891052	0.413699	0.413763
	H60	H	0.120860	0.400918	0.587295
	H61	H	0.882152	0.601902	0.599424
	H62	H	0.120180	0.586791	0.407102
	H63	H	0.886008	0.409796	0.398130
	H64	H	0.415603	0.598220	0.117166
	H65	H	0.593453	0.591723	0.883446
	H66	H	0.586034	0.395700	0.116606
	H67	H	0.406354	0.402911	0.878028
	H68	H	0.594538	0.120107	0.396396
	H69	H	0.593904	0.883725	0.596860
	H70	H	0.400435	0.120872	0.595337
	H71	H	0.409267	0.881102	0.406699
	H72	H	0.900830	0.617740	0.084722
	H73	H	0.096833	0.384755	0.089950
	H74	H	0.106100	0.618809	0.905439
	H75	H	0.910762	0.384326	0.917203
	H76	H	0.103843	0.899074	0.620428
	H77	H	0.101244	0.088444	0.381941
	H78	H	0.901421	0.087002	0.618774
	H79	H	0.917223	0.914620	0.385875
	H80	H	0.621730	0.089631	0.904402
	H81	H	0.388815	0.096454	0.084641
	H82	H	0.625833	0.901089	0.099391
	H83	H	0.384504	0.898811	0.908113
	H84	H	0.622235	0.901417	0.086307
	H85	H	0.388982	0.086561	0.096273
	H86	H	0.623484	0.094725	0.904155
	H87	H	0.390922	0.912291	0.914795
	H88	H	0.919776	0.087099	0.613997
	H89	H	0.093284	0.089893	0.384646
	H90	H	0.099969	0.911186	0.617039
	H91	H	0.917298	0.901346	0.382098
	H92	H	0.094246	0.618092	0.897586
	H93	H	0.104242	0.380875	0.090960
	H94	H	0.910209	0.620008	0.103343
	H95	H	0.903816	0.377765	0.901847
	H96	H	0.415328	0.118666	0.600215
	H97	H	0.599034	0.885706	0.586847
	H98	H	0.592566	0.115103	0.412883
	H99	H	0.416975	0.882941	0.406398
	H100	H	0.612404	0.399075	0.123338
	H101	H	0.598145	0.597348	0.880387
	H102	H	0.404739	0.593594	0.119643
	H103	H	0.411245	0.416839	0.883979
	H104	H	0.123547	0.593160	0.402880
	H105	H	0.890191	0.594926	0.582264
	H106	H	0.120711	0.409329	0.593487
	H107	H	0.886199	0.399035	0.410866
	H108	H	0.921472	0.612531	0.086449
	H109	H	0.098873	0.380708	0.097015
	H110	H	0.094067	0.613855	0.912065
	H111	H	0.921327	0.382722	0.902629
	H112	H	0.091988	0.901597	0.616142
	H113	H	0.097560	0.096423	0.380632
	H114	H	0.910995	0.102230	0.621200
	H115	H	0.905327	0.908702	0.380023
	H116	H	0.621088	0.092757	0.909125
	H117	H	0.384160	0.099940	0.098570
	H118	H	0.620104	0.912518	0.094255
	H119	H	0.386459	0.912289	0.899323
	C120	C	0.382346	0.008910	0.622029
	C121	C	0.626662	0.992096	0.621493
	C122	C	0.627226	0.009851	0.378138
	C123	C	0.383638	0.990910	0.379297
	C124	C	0.627495	0.377422	0.008391
	C125	C	0.625974	0.620642	0.990822
	C126	C	0.383057	0.621914	0.008344
	C127	C	0.384764	0.379139	0.990664
	C128	C	0.013292	0.621017	0.377783
	C129	C	0.995908	0.620158	0.620892
	C130	C	0.013090	0.376612	0.622113
	C131	C	0.996032	0.377735	0.378867
	C132	C	0.883155	0.508329	0.121319
	C133	C	0.127444	0.490838	0.121278
	C134	C	0.127171	0.508181	0.877603
	C135	C	0.883367	0.490472	0.878412
	C136	C	0.127775	0.876129	0.508855
	C137	C	0.125067	0.119630	0.491476
	C138	C	0.882352	0.121992	0.509126
	C139	C	0.884234	0.878971	0.491582
	C140	C	0.513315	0.121672	0.877802
	C141	C	0.496153	0.120961	0.120940
	C142	C	0.513995	0.877346	0.122602
	C143	C	0.495957	0.878891	0.878691
	C144	C	0.386808	0.884705	0.676788
	C145	C	0.621673	0.116220	0.675411
	C146	C	0.625206	0.885846	0.324425
	C147	C	0.385903	0.114486	0.323886
	C148	C	0.682280	0.380712	0.884236
	C149	C	0.680170	0.617014	0.115276
	C150	C	0.328633	0.619687	0.883965
	C151	C	0.329950	0.381356	0.115142
	C152	C	0.890417	0.678189	0.379168
	C153	C	0.119833	0.673525	0.618074
	C154	C	0.889323	0.323027	0.620350
	C155	C	0.119750	0.321729	0.381588
	C156	C	0.889338	0.380946	0.677044
	C157	C	0.120252	0.615129	0.674336
	C158	C	0.890015	0.619835	0.322454
	C159	C	0.119948	0.379169	0.324013
	C160	C	0.385801	0.677439	0.884077
	C161	C	0.623195	0.674618	0.115299
	C162	C	0.625308	0.323232	0.884332
	C163	C	0.387742	0.324523	0.115266
	C164	C	0.683417	0.886407	0.380604
	C165	C	0.680248	0.116119	0.619018
	C166	C	0.329083	0.885011	0.620235
	C167	C	0.327770	0.114258	0.380577
	C168	C	0.887296	0.384434	0.176494
	C169	C	0.123858	0.614177	0.175935
	C170	C	0.124462	0.383983	0.824317
	C171	C	0.885801	0.614411	0.823313
	C172	C	0.183448	0.879267	0.384991
	C173	C	0.178936	0.116396	0.615895
	C174	C	0.828281	0.120201	0.384793
	C175	C	0.828942	0.880994	0.615826
	C176	C	0.389778	0.177648	0.880869
	C177	C	0.620316	0.174018	0.117530
	C178	C	0.390085	0.823927	0.119832
	C179	C	0.620159	0.823650	0.881352
	C180	C	0.390121	0.881434	0.177426
	C181	C	0.620416	0.116410	0.174707
	C182	C	0.389040	0.119578	0.824273
	C183	C	0.620139	0.881250	0.824052
	C184	C	0.884690	0.177729	0.385182
	C185	C	0.121909	0.173746	0.615444
	C186	C	0.125613	0.822281	0.384655
	C187	C	0.886898	0.823659	0.615959
	C188	C	0.182780	0.384537	0.880937
	C189	C	0.181241	0.614367	0.118628
	C190	C	0.828887	0.384721	0.120266
	C191	C	0.827748	0.614095	0.879840
	C192	C	0.402780	0.095557	0.599982
	C193	C	0.605644	0.905961	0.599590
	C194	C	0.605022	0.096203	0.399277
	C195	C	0.406320	0.904535	0.401995
	C196	C	0.605309	0.398717	0.095414
	C197	C	0.604013	0.599237	0.904132
	C198	C	0.404872	0.599505	0.094847
	C199	C	0.406725	0.401262	0.904045
	C200	C	0.099474	0.598065	0.400290
	C201	C	0.909259	0.599580	0.599492
	C202	C	0.099630	0.397333	0.599570
	C203	C	0.909961	0.400708	0.400879
	C204	C	0.904549	0.594413	0.098352
	C205	C	0.106357	0.404511	0.099168
	C206	C	0.104875	0.594587	0.898833
	C207	C	0.905647	0.404026	0.900793
	C208	C	0.105253	0.897639	0.595535
	C209	C	0.103573	0.097881	0.404609
	C210	C	0.904340	0.098965	0.595747
	C211	C	0.906618	0.901556	0.404964
	C212	C	0.599651	0.099199	0.899357
	C213	C	0.409621	0.100438	0.099697
	C214	C	0.600316	0.898580	0.100048
	C215	C	0.409552	0.901147	0.900795
	Zn216	Zn	0.504311	0.000313	0.749550
	Zn217	Zn	0.505375	-0.000099	0.250695
	Zn218	Zn	0.754776	0.499494	0.000047
	Zn219	Zn	0.255488	0.500148	-0.000288
	Zn220	Zn	0.004794	0.749233	0.499772
	Zn221	Zn	0.004152	0.248823	0.500419
	Zn222	Zn	0.004696	0.498927	0.749677
	Zn223	Zn	0.005137	0.499456	0.249407
	Zn224	Zn	0.504990	0.749854	-0.000239
	Zn225	Zn	0.505497	0.249929	-0.000592
	Zn226	Zn	0.755391	0.000749	0.499858
	Zn227	Zn	0.254630	-0.000706	0.500797
	N228	N	0.419323	0.962715	0.677960
	N229	N	0.589119	0.038125	0.677096
	N230	N	0.590998	0.963642	0.322870
	N231	N	0.420154	0.036783	0.323147
	N232	N	0.683575	0.413752	0.962285
	N233	N	0.681914	0.584234	0.036988
	N234	N	0.326888	0.585900	0.962207
	N235	N	0.328043	0.414918	0.036825
	N236	N	0.968199	0.678975	0.412719
	N237	N	0.041514	0.676738	0.585530
	N238	N	0.967350	0.320309	0.586788
	N239	N	0.041822	0.320885	0.415209
	N240	N	0.967192	0.413564	0.678132
	N241	N	0.042178	0.582874	0.676388
	N242	N	0.967571	0.584972	0.321575
	N243	N	0.042174	0.413410	0.322203
	N244	N	0.418713	0.679138	0.962386
	N245	N	0.590213	0.677170	0.036908
	N246	N	0.592030	0.320890	0.962780
	N247	N	0.421050	0.323144	0.036947
	N248	N	0.684687	0.964410	0.413431
	N249	N	0.683457	0.038116	0.586178
	N250	N	0.326290	0.963104	0.586862
	N251	N	0.326129	0.036268	0.414131
	N252	N	0.920454	0.462275	0.177295
	N253	N	0.091104	0.536363	0.177743
	N254	N	0.090421	0.461871	0.822229
	N255	N	0.919734	0.536520	0.822249
	N256	N	0.184863	0.912129	0.463304
	N257	N	0.180879	0.083357	0.537770
	N258	N	0.826752	0.086197	0.462954
	N259	N	0.827416	0.914924	0.537604
	N260	N	0.468081	0.179269	0.913333
	N261	N	0.542099	0.176964	0.084703
	N262	N	0.468167	0.821279	0.086362
	N263	N	0.541950	0.821962	0.914488
	N264	N	0.468180	0.913607	0.179401
	N265	N	0.542252	0.084273	0.177218
	N266	N	0.466662	0.085211	0.822556
	N267	N	0.542024	0.914768	0.822154
	N268	N	0.917836	0.178789	0.463323
	N269	N	0.088953	0.175703	0.537021
	N270	N	0.091810	0.820192	0.462709
	N271	N	0.920249	0.821992	0.537647
	N272	N	0.184686	0.462644	0.913245
	N273	N	0.183541	0.536528	0.085481
	N274	N	0.826130	0.462637	0.086796
	N275	N	0.825980	0.536002	0.913164
	O276	O	0.935527	0.991897	0.003690
	H277	H	0.940635	0.988901	-0.004739
	H278	H	0.928180	0.999860	-0.003896
	O279	O	-0.023330	0.027248	-0.036675
	H280	H	-0.025861	0.033089	-0.036995
	H281	H	-0.026914	0.029272	-0.033806
	O282	O	-0.013520	-0.046207	0.913692
	H283	H	-0.003982	-0.045572	0.905055
	H284	H	-0.010434	-0.046075	0.919746
	O285	O	0.480156	0.520012	0.491971
	H286	H	0.484254	0.517364	0.497001
	H287	H	0.472132	0.518364	0.494426
	O288	O	0.513723	0.549634	0.491929
	H289	H	0.508482	0.547635	0.485729
	H290	H	0.513827	0.559300	0.486300
	O291	O	0.507952	0.541772	0.459147
	H292	H	0.515162	0.538380	0.461300
	H293	H	0.505468	0.546542	0.458754
	O294	O	-0.486781	-0.490712	0.489766
	H295	H	-0.484241	-0.488137	0.487841
	H296	H	-0.490491	-0.486264	0.483862
	O297	O	0.463183	0.558868	0.470084
	H298	H	0.462315	0.561533	0.461193
	H299	H	0.459251	0.558323	0.472091
	O300	O	-0.012384	1.002029	0.929704
	H301	H	-0.010919	0.988869	0.930407
	H302	H	-0.002527	1.001788	0.933602
	O303	O	0.476257	0.581222	0.449855
	H304	H	0.478420	0.579907	0.446089
	H305	H	0.481923	0.580580	0.446287
	O306	O	-0.005571	-0.037298	0.991205
	H307	H	-0.006198	-0.034316	0.992045
	H308	H	-0.012777	-0.037904	0.996353
	O309	O	1.001282	1.021219	0.936476
	H310	H	0.999518	1.014507	0.930373
	H311	H	1.000039	1.027758	0.940621
	O312	O	0.512221	0.554803	0.478163
	H313	H	0.511086	0.550510	0.486814
	H314	H	0.506049	0.553356	0.482435
	O315	O	0.535221	0.561256	0.441265
	H316	H	0.539166	0.566926	0.452650
	H317	H	0.531684	0.565281	0.430028
	O318	O	0.031743	0.921593	-0.003459
	H319	H	0.032270	0.916295	-0.003648
	H320	H	0.021318	0.920287	0.003674
	O321	O	0.989831	0.946807	-0.046249
	H322	H	0.991790	0.944847	-0.045072
	H323	H	0.988622	0.939268	-0.053330
