data_Molecule from HDF5

_cell_length_a		16.060680
_cell_length_b		16.334643
_cell_length_c		16.059473
_cell_angle_alpha	89.914767
_cell_angle_beta	90.415353
_cell_angle_gamma	88.979224
_symmetry_space_group_name_H-M	'P 1'
_symmetry_Int_Tables_number		1

loop_
	_symmetry_equiv_pos_as_xyz
	x,y,z

loop_
	_atom_site_label
	_atom_site_type_symbol
	_atom_site_fract_x
	_atom_site_fract_y
	_atom_site_fract_z
	H0	H	0.416465	0.840519	0.711242
	H1	H	0.605684	0.167956	0.713509
	H2	H	0.609336	0.840606	0.287441
	H3	H	0.406680	0.169231	0.282426
	H4	H	0.722136	0.406312	0.831990
	H5	H	0.720188	0.596404	0.166451
	H6	H	0.295477	0.602873	0.833073
	H7	H	0.303971	0.410254	0.167315
	H8	H	0.846991	0.725068	0.395193
	H9	H	0.177227	0.713650	0.599394
	H10	H	0.844677	0.293507	0.599450
	H11	H	0.175054	0.284825	0.399431
	H12	H	0.842822	0.412622	0.708770
	H13	H	0.176866	0.598003	0.712359
	H14	H	0.843825	0.603694	0.287103
	H15	H	0.178067	0.404576	0.290220
	H16	H	0.405652	0.722214	0.833614
	H17	H	0.611944	0.716934	0.163953
	H18	H	0.613325	0.287267	0.833587
	H19	H	0.414383	0.289328	0.164887
	H20	H	0.728871	0.842504	0.399493
	H21	H	0.719909	0.169785	0.596759
	H22	H	0.302741	0.839090	0.595112
	H23	H	0.290616	0.168360	0.400209
	H24	H	0.916742	0.340662	0.213277
	H25	H	0.106486	0.668174	0.214015
	H26	H	0.110278	0.340521	0.786660
	H27	H	0.906937	0.669497	0.783912
	H28	H	0.220075	0.908147	0.331068
	H29	H	0.220954	0.097913	0.665147
	H30	H	0.794869	0.105330	0.331853
	H31	H	0.803942	0.912954	0.666925
	H32	H	0.346856	0.224879	0.894801
	H33	H	0.677075	0.212370	0.099371
	H34	H	0.344860	0.793781	0.098398
	H35	H	0.675961	0.785415	0.899360
	H36	H	0.343308	0.912675	0.206354
	H37	H	0.676950	0.097576	0.211864
	H38	H	0.343245	0.103600	0.786511
	H39	H	0.678010	0.905021	0.789008
	H40	H	0.904424	0.224308	0.333611
	H41	H	0.109548	0.216644	0.664678
	H42	H	0.113564	0.787597	0.333735
	H43	H	0.913430	0.789876	0.664211
	H44	H	0.227884	0.340984	0.902393
	H45	H	0.221328	0.669036	0.100004
	H46	H	0.803666	0.338746	0.095808
	H47	H	0.790276	0.668134	0.900181
	H48	H	0.411054	0.123690	0.597480
	H49	H	0.604595	0.887103	0.597429
	H50	H	0.609464	0.125834	0.400870
	H51	H	0.420428	0.890434	0.408540
	H52	H	0.604455	0.400489	0.119236
	H53	H	0.591396	0.607356	0.879020
	H54	H	0.410786	0.604629	0.121981
	H55	H	0.414546	0.417506	0.880552
	H56	H	0.135799	0.605037	0.398116
	H57	H	0.888653	0.600630	0.599261
	H58	H	0.127537	0.410396	0.586195
	H59	H	0.888646	0.418981	0.391116
	H60	H	0.129748	0.411906	0.596900
	H61	H	0.889631	0.611891	0.585463
	H62	H	0.128592	0.599395	0.419748
	H63	H	0.887981	0.400184	0.409344
	H64	H	0.416900	0.594912	0.116660
	H65	H	0.612720	0.598628	0.874996
	H66	H	0.612671	0.406000	0.120155
	H67	H	0.426124	0.414285	0.882486
	H68	H	0.594445	0.123189	0.397197
	H69	H	0.608279	0.889105	0.587305
	H70	H	0.418834	0.120290	0.590995
	H71	H	0.408946	0.884793	0.401969
	H72	H	0.909370	0.624447	0.096741
	H73	H	0.109303	0.386113	0.095436
	H74	H	0.104225	0.621520	0.910030
	H75	H	0.916771	0.388326	0.907728
	H76	H	0.106693	0.902752	0.620483
	H77	H	0.119481	0.096883	0.373691
	H78	H	0.907299	0.100581	0.619654
	H79	H	0.914395	0.913316	0.377732
	H80	H	0.630337	0.102135	0.913207
	H81	H	0.396141	0.096720	0.075501
	H82	H	0.629398	0.914541	0.095667
	H83	H	0.388682	0.912303	0.896516
	H84	H	0.634536	0.901181	0.095448
	H85	H	0.390731	0.091706	0.099503
	H86	H	0.627082	0.086358	0.907769
	H87	H	0.390071	0.905923	0.908311
	H88	H	0.922175	0.095099	0.614239
	H89	H	0.088938	0.081526	0.387116
	H90	H	0.110278	0.910782	0.619608
	H91	H	0.922184	0.916766	0.380604
	H92	H	0.101705	0.624076	0.900968
	H93	H	0.108839	0.386003	0.095505
	H94	H	0.917169	0.621777	0.093515
	H95	H	0.914702	0.384463	0.899819
	H96	H	0.409653	0.122144	0.586264
	H97	H	0.614608	0.884837	0.593901
	H98	H	0.599864	0.121094	0.411381
	H99	H	0.421378	0.886311	0.395508
	H100	H	0.603529	0.409853	0.117579
	H101	H	0.595117	0.585475	0.883527
	H102	H	0.423515	0.606008	0.118519
	H103	H	0.417067	0.406266	0.878095
	H104	H	0.128612	0.584413	0.402869
	H105	H	0.894102	0.594673	0.583302
	H106	H	0.130848	0.402910	0.593125
	H107	H	0.896906	0.424778	0.416355
	H108	H	0.909979	0.620463	0.088508
	H109	H	0.107841	0.387477	0.093664
	H110	H	0.095814	0.620557	0.905895
	H111	H	0.922008	0.388720	0.902319
	H112	H	0.102396	0.908435	0.615743
	H113	H	0.089595	0.115633	0.376148
	H114	H	0.920419	0.109451	0.619838
	H115	H	0.920580	0.908441	0.379285
	H116	H	0.634739	0.097830	0.896636
	H117	H	0.385929	0.114320	0.091109
	H118	H	0.627900	0.905751	0.084274
	H119	H	0.393785	0.918937	0.909169
	C120	C	0.387784	0.013362	0.619703
	C121	C	0.634020	0.995920	0.621326
	C122	C	0.631558	0.014578	0.375837
	C123	C	0.386289	0.995972	0.374377
	C124	C	0.634207	0.379208	0.008308
	C125	C	0.629624	0.623753	0.989445
	C126	C	0.387266	0.629143	0.008709
	C127	C	0.391892	0.384518	0.990715
	C128	C	0.020811	0.626726	0.376959
	C129	C	1.001346	0.627126	0.619124
	C130	C	0.019139	0.382882	0.620478
	C131	C	1.001360	0.383457	0.378001
	C132	C	0.887734	0.512992	0.120672
	C133	C	0.133957	0.495447	0.122542
	C134	C	0.131250	0.513658	0.878142
	C135	C	0.886574	0.495688	0.875471
	C136	C	0.133560	0.881125	0.508075
	C137	C	0.128830	0.124747	0.489394
	C138	C	0.886898	0.129755	0.507609
	C139	C	0.891284	0.885239	0.489772
	C140	C	0.520244	0.125846	0.876560
	C141	C	0.501368	0.125656	0.118688
	C142	C	0.519909	0.882205	0.119645
	C143	C	0.501040	0.882358	0.877020
	C144	C	0.394207	0.889588	0.674316
	C145	C	0.627313	0.119311	0.675684
	C146	C	0.630037	0.890245	0.323507
	C147	C	0.387131	0.119827	0.320256
	C148	C	0.686597	0.384364	0.882509
	C149	C	0.683580	0.618451	0.116077
	C150	C	0.331884	0.624857	0.883261
	C151	C	0.339617	0.388487	0.116797
	C152	C	0.895931	0.684928	0.377105
	C153	C	0.127221	0.677859	0.618764
	C154	C	0.893941	0.330879	0.618473
	C155	C	0.125849	0.324572	0.380190
	C156	C	0.893178	0.389974	0.673034
	C157	C	0.127104	0.620213	0.674712
	C158	C	0.894391	0.624670	0.323096
	C159	C	0.127441	0.384151	0.325712
	C160	C	0.387083	0.683998	0.883420
	C161	C	0.629690	0.678335	0.114771
	C162	C	0.632284	0.325149	0.883165
	C163	C	0.394895	0.328365	0.115618
	C164	C	0.689325	0.891211	0.379321
	C165	C	0.684644	0.119983	0.618202
	C166	C	0.337821	0.888839	0.616131
	C167	C	0.329204	0.119510	0.378625
	C168	C	0.894758	0.389280	0.175403
	C169	C	0.128210	0.619199	0.177179
	C170	C	0.130612	0.389670	0.823886
	C171	C	0.886806	0.620052	0.821134
	C172	C	0.185428	0.885870	0.381758
	C173	C	0.183759	0.119571	0.615316
	C174	C	0.831666	0.126580	0.381932
	C175	C	0.839333	0.890679	0.616048
	C176	C	0.395686	0.184736	0.876144
	C177	C	0.627016	0.176484	0.118315
	C178	C	0.394519	0.830601	0.117440
	C179	C	0.626278	0.824331	0.879536
	C180	C	0.393738	0.889721	0.171376
	C181	C	0.626910	0.119329	0.174307
	C182	C	0.393966	0.124265	0.822460
	C183	C	0.627543	0.883845	0.824500
	C184	C	0.886158	0.185865	0.383033
	C185	C	0.128651	0.178874	0.614959
	C186	C	0.132260	0.826142	0.383040
	C187	C	0.893909	0.829521	0.614886
	C188	C	0.189133	0.390062	0.881296
	C189	C	0.185203	0.619568	0.120088
	C190	C	0.838373	0.388500	0.116944
	C191	C	0.828996	0.619274	0.879035
	C192	C	0.407120	0.099712	0.597963
	C193	C	0.614789	0.909271	0.599467
	C194	C	0.608288	0.101053	0.396840
	C195	C	0.409845	0.909512	0.395548
	C196	C	0.613011	0.399400	0.096380
	C197	C	0.606643	0.603222	0.901955
	C198	C	0.410284	0.608026	0.096306
	C199	C	0.412911	0.406306	0.902864
	C200	C	0.108270	0.603256	0.400135
	C201	C	0.913410	0.608082	0.596085
	C202	C	0.106904	0.402456	0.598627
	C203	C	0.913687	0.407545	0.399313
	C204	C	0.906513	0.599755	0.099301
	C205	C	0.114585	0.408890	0.101320
	C206	C	0.107523	0.599672	0.899341
	C207	C	0.910739	0.409640	0.896742
	C208	C	0.112589	0.901424	0.595841
	C209	C	0.106026	0.104252	0.401712
	C210	C	0.909898	0.108071	0.595251
	C211	C	0.912663	0.906715	0.401916
	C212	C	0.607869	0.102448	0.899272
	C213	C	0.413440	0.106513	0.095607
	C214	C	0.607820	0.901281	0.098160
	C215	C	0.413767	0.905532	0.898115
	Zn216	Zn	0.510412	0.003991	0.748551
	Zn217	Zn	0.510177	0.004570	0.245930
	Zn218	Zn	0.758498	0.503309	-0.000821
	Zn219	Zn	0.261366	0.505707	0.000700
	Zn220	Zn	0.012589	0.754558	0.498512
	Zn221	Zn	0.009198	0.255117	0.499021
	Zn222	Zn	0.009645	0.505348	0.746655
	Zn223	Zn	0.011085	0.504681	0.249892
	Zn224	Zn	0.510282	0.754606	-0.001104
	Zn225	Zn	0.512050	0.253124	-0.001308
	Zn226	Zn	0.761246	0.006818	0.498216
	Zn227	Zn	0.258149	0.003657	0.498045
	N228	N	0.424550	0.967873	0.676825
	N229	N	0.596829	0.040939	0.678027
	N230	N	0.594820	0.967859	0.321276
	N231	N	0.421876	0.041884	0.317272
	N232	N	0.687943	0.417266	0.961421
	N233	N	0.683484	0.584982	0.037403
	N234	N	0.331809	0.591533	0.962268
	N235	N	0.337857	0.422727	0.038245
	N236	N	0.975615	0.686231	0.409939
	N237	N	0.047820	0.682308	0.585042
	N238	N	0.973409	0.326322	0.586601
	N239	N	0.046277	0.324202	0.411965
	N240	N	0.972049	0.421616	0.674273
	N241	N	0.047674	0.589680	0.675241
	N242	N	0.972890	0.588930	0.322986
	N243	N	0.048929	0.420283	0.324262
	N244	N	0.420797	0.686898	0.962618
	N245	N	0.596701	0.681760	0.035110
	N246	N	0.600112	0.321931	0.962681
	N247	N	0.426695	0.325778	0.036099
	N248	N	0.690432	0.969528	0.411305
	N249	N	0.688852	0.042256	0.584956
	N250	N	0.333423	0.966850	0.582940
	N251	N	0.328738	0.041591	0.411566
	N252	N	0.924545	0.467975	0.178234
	N253	N	0.096957	0.541184	0.178970
	N254	N	0.095080	0.467282	0.821623
	N255	N	0.922175	0.542396	0.818720
	N256	N	0.186666	0.919132	0.460441
	N257	N	0.184066	0.086668	0.536157
	N258	N	0.831854	0.092278	0.460484
	N259	N	0.837627	0.924603	0.537090
	N260	N	0.475084	0.185728	0.909205
	N261	N	0.547944	0.180417	0.084180
	N262	N	0.474162	0.825512	0.086018
	N263	N	0.546850	0.823323	0.911555
	N264	N	0.472811	0.920993	0.173061
	N265	N	0.547604	0.088387	0.174532
	N266	N	0.472613	0.088386	0.822335
	N267	N	0.548849	0.919165	0.822593
	N268	N	0.919769	0.187816	0.462237
	N269	N	0.095447	0.182292	0.535702
	N270	N	0.100697	0.822760	0.462639
	N271	N	0.925538	0.826199	0.535362
	N272	N	0.189805	0.468038	0.914028
	N273	N	0.189032	0.541710	0.086948
	N274	N	0.833879	0.466389	0.083731
	N275	N	0.828667	0.541278	0.911968
	O276	O	-0.068416	0.003263	0.015925
	H277	H	-0.067291	0.011042	0.007714
	H278	H	-0.068221	-0.003635	0.020417
	O279	O	0.599521	0.530326	0.463153
	H280	H	0.592491	0.521909	0.460363
	H281	H	0.598121	0.533560	0.458355
	O282	O	0.522002	0.524259	0.472136
	H283	H	0.514051	0.514450	0.470448
	H284	H	0.528453	0.515759	0.470093
	O285	O	1.010432	0.023072	1.009557
	H286	H	1.014860	0.017778	1.011569
	H287	H	1.018363	0.017595	1.013653
	O288	O	1.039931	0.034658	0.034189
	H289	H	1.051464	0.023003	0.054346
	H290	H	1.036462	0.029859	0.032453
	O291	O	0.562517	0.493101	0.514808
	H292	H	0.574913	0.497786	0.509596
	H293	H	0.560499	0.494972	0.512903
	O294	O	0.992286	-0.060123	0.966262
	H295	H	0.999260	-0.068178	0.964292
	H296	H	0.991365	-0.062105	0.954409
	O297	O	-0.027050	-0.006299	-0.010017
	H298	H	-0.024916	-0.001883	-0.003129
	H299	H	-0.032592	-0.012852	-0.000592
	O300	O	0.562932	0.483774	0.416607
	H301	H	0.558582	0.490768	0.418606
	H302	H	0.552784	0.492691	0.416666
	O303	O	0.014553	0.027656	-0.005507
	H304	H	0.012547	0.035319	0.000656
	H305	H	0.016104	0.039045	-0.002456
	O306	O	0.987708	0.034415	-0.078748
	H307	H	0.966479	0.034041	-0.079134
	H308	H	0.989936	0.031538	-0.082230
	O309	O	0.009190	-0.010909	0.960909
	H310	H	0.017070	-0.003045	0.954527
	H311	H	0.019835	-0.011523	0.956637
	O312	O	0.993609	0.934991	0.931803
	H313	H	0.993855	0.938730	0.935615
	H314	H	0.992970	0.951006	0.930951
	O315	O	0.504287	0.557108	0.574325
	H316	H	0.501888	0.551576	0.582322
	H317	H	0.506534	0.574150	0.578667
	O318	O	0.485790	0.502290	0.489483
	H319	H	0.489453	0.494540	0.487965
	H320	H	0.485646	0.504369	0.485581
	O321	O	0.095030	0.927459	0.986135
	H322	H	0.094376	0.920193	0.968501
	H323	H	0.098004	0.922929	0.976242
	O324	O	0.629732	0.384165	0.518409
	H325	H	0.628483	0.384898	0.502032
	H326	H	0.639273	0.370687	0.507675
	O327	O	0.451521	0.509777	0.587643
	H328	H	0.452351	0.499492	0.589970
	H329	H	0.469392	0.503601	0.589532
	O330	O	0.438731	0.603329	0.459070
	H331	H	0.443837	0.608148	0.461514
	H332	H	0.438650	0.606624	0.469452
	O333	O	0.464689	0.498494	0.365540
	H334	H	0.457441	0.505591	0.359222
	H335	H	0.460268	0.511543	0.372874
	O336	O	0.520167	0.518322	0.497696
	H337	H	0.526766	0.516776	0.483042
	H338	H	0.507743	0.520555	0.504308
	O339	O	1.024556	1.057211	0.008678
	H340	H	1.012603	1.061263	0.010340
	H341	H	1.031351	1.062598	0.017631
	O342	O	0.450251	0.505683	0.512823
	H343	H	0.453782	0.513208	0.512428
	H344	H	0.451985	0.514722	0.513144
	O345	O	0.520253	0.429937	0.543751
	H346	H	0.519844	0.423324	0.546693
	H347	H	0.524136	0.425559	0.539867
	O348	O	-0.068793	0.040467	-0.026167
	H349	H	-0.080089	0.043295	-0.031020
	H350	H	-0.069718	0.032841	-0.049495
	O351	O	-0.494297	1.545985	1.552390
	H352	H	-0.503718	1.550303	1.551872
	H353	H	-0.483049	1.532159	1.557878
	O354	O	0.457706	0.584179	0.459722
	H355	H	0.460490	0.571136	0.462283
	H356	H	0.459680	0.596634	0.460157
	O357	O	0.102283	0.943703	0.941858
	H358	H	0.106069	0.940287	0.940965
	H359	H	0.106589	0.952912	0.938342
