data_Molecule from HDF5

_cell_length_a		16.183054
_cell_length_b		16.143382
_cell_length_c		16.304912
_cell_angle_alpha	89.942706
_cell_angle_beta	90.087912
_cell_angle_gamma	90.120521
_symmetry_space_group_name_H-M	'P 1'
_symmetry_Int_Tables_number		1

loop_
	_symmetry_equiv_pos_as_xyz
	x,y,z

loop_
	_atom_site_label
	_atom_site_type_symbol
	_atom_site_fract_x
	_atom_site_fract_y
	_atom_site_fract_z
	H0	H	0.389646	0.842055	0.705788
	H1	H	0.593217	0.171131	0.704519
	H2	H	0.592327	0.843983	0.272689
	H3	H	0.385714	0.169399	0.268615
	H4	H	0.706484	0.407528	0.827433
	H5	H	0.707431	0.611787	0.151163
	H6	H	0.273373	0.608338	0.826093
	H7	H	0.273623	0.406676	0.152914
	H8	H	0.826257	0.720025	0.390377
	H9	H	0.154262	0.721087	0.589445
	H10	H	0.824501	0.290867	0.589776
	H11	H	0.152713	0.290769	0.390285
	H12	H	0.825855	0.403756	0.706752
	H13	H	0.153421	0.606441	0.705738
	H14	H	0.828419	0.610586	0.271246
	H15	H	0.153500	0.404323	0.274576
	H16	H	0.391276	0.723004	0.825665
	H17	H	0.590236	0.722908	0.152177
	H18	H	0.589152	0.294038	0.825883
	H19	H	0.387479	0.288536	0.151232
	H20	H	0.703679	0.842357	0.389612
	H21	H	0.705378	0.171438	0.586673
	H22	H	0.273519	0.841940	0.589519
	H23	H	0.273317	0.170544	0.387583
	H24	H	0.888215	0.343385	0.204899
	H25	H	0.093717	0.670386	0.207078
	H26	H	0.088745	0.342675	0.776215
	H27	H	0.887881	0.671090	0.772369
	H28	H	0.205978	0.903935	0.325890
	H29	H	0.206484	0.107446	0.651061
	H30	H	0.774639	0.106284	0.325899
	H31	H	0.773496	0.906351	0.652046
	H32	H	0.326062	0.221224	0.887851
	H33	H	0.655000	0.222796	0.086909
	H34	H	0.327261	0.791980	0.087702
	H35	H	0.654890	0.793253	0.890215
	H36	H	0.328598	0.902595	0.205655
	H37	H	0.654257	0.110422	0.205869
	H38	H	0.328087	0.108958	0.771277
	H39	H	0.655184	0.906786	0.775083
	H40	H	0.887993	0.222815	0.326930
	H41	H	0.088791	0.221253	0.652459
	H42	H	0.088733	0.790416	0.326510
	H43	H	0.891339	0.792193	0.653016
	H44	H	0.202577	0.343019	0.891299
	H45	H	0.202199	0.673030	0.086382
	H46	H	0.773845	0.344476	0.088577
	H47	H	0.776828	0.673139	0.891252
	H48	H	0.400848	0.121988	0.577189
	H49	H	0.581579	0.889477	0.582694
	H50	H	0.586513	0.126027	0.397595
	H51	H	0.399664	0.890641	0.397416
	H52	H	0.586435	0.416415	0.106794
	H53	H	0.587444	0.595381	0.873442
	H54	H	0.399494	0.595259	0.103253
	H55	H	0.394440	0.420014	0.873979
	H56	H	0.108931	0.600989	0.397465
	H57	H	0.871783	0.600425	0.582946
	H58	H	0.101252	0.422940	0.574449
	H59	H	0.875651	0.426171	0.397815
	H60	H	0.108349	0.419354	0.594321
	H61	H	0.873694	0.597593	0.578960
	H62	H	0.107540	0.596545	0.400546
	H63	H	0.868878	0.412363	0.386583
	H64	H	0.400108	0.605919	0.106036
	H65	H	0.575589	0.599457	0.874498
	H66	H	0.578822	0.420145	0.104184
	H67	H	0.400443	0.414089	0.874827
	H68	H	0.579851	0.125288	0.393020
	H69	H	0.582859	0.889103	0.582466
	H70	H	0.396713	0.123858	0.580787
	H71	H	0.399763	0.890066	0.396628
	H72	H	0.901667	0.622653	0.073911
	H73	H	0.075365	0.391541	0.080859
	H74	H	0.077155	0.624402	0.897276
	H75	H	0.894999	0.386239	0.887749
	H76	H	0.086726	0.924523	0.604151
	H77	H	0.081578	0.098849	0.372251
	H78	H	0.897311	0.099039	0.605922
	H79	H	0.892320	0.911399	0.371023
	H80	H	0.610733	0.105323	0.893174
	H81	H	0.376247	0.091332	0.077743
	H82	H	0.607123	0.919235	0.079505
	H83	H	0.369903	0.904763	0.894172
	H84	H	0.609984	0.916366	0.085735
	H85	H	0.373030	0.097510	0.083452
	H86	H	0.606422	0.100423	0.901189
	H87	H	0.377994	0.918999	0.906510
	H88	H	0.896453	0.096624	0.605616
	H89	H	0.081817	0.098985	0.372541
	H90	H	0.072051	0.912619	0.602909
	H91	H	0.896055	0.917256	0.373551
	H92	H	0.085416	0.625873	0.899856
	H93	H	0.086477	0.389606	0.078527
	H94	H	0.891929	0.628807	0.084389
	H95	H	0.907241	0.393234	0.900172
	H96	H	0.402285	0.121935	0.582271
	H97	H	0.582114	0.887898	0.583278
	H98	H	0.579089	0.123559	0.399996
	H99	H	0.399287	0.890021	0.398066
	H100	H	0.579237	0.411357	0.105483
	H101	H	0.584853	0.607204	0.869550
	H102	H	0.390467	0.600633	0.106377
	H103	H	0.392998	0.412196	0.871175
	H104	H	0.107243	0.595581	0.395057
	H105	H	0.872479	0.595547	0.584572
	H106	H	0.107947	0.402796	0.579363
	H107	H	0.872714	0.408582	0.405124
	H108	H	0.906011	0.624443	0.088255
	H109	H	0.081858	0.387493	0.089364
	H110	H	0.082452	0.627316	0.891929
	H111	H	0.889312	0.390723	0.905451
	H112	H	0.088825	0.906402	0.609815
	H113	H	0.082462	0.099302	0.372964
	H114	H	0.898402	0.097442	0.605046
	H115	H	0.900352	0.910628	0.372305
	H116	H	0.608076	0.095515	0.893866
	H117	H	0.374143	0.100282	0.075762
	H118	H	0.608627	0.912123	0.079763
	H119	H	0.372926	0.923576	0.887260
	C120	C	0.369390	0.014431	0.610322
	C121	C	0.612352	0.997828	0.611161
	C122	C	0.611102	0.016181	0.367754
	C123	C	0.368685	0.998194	0.366825
	C124	C	0.611104	0.387064	-0.002021
	C125	C	0.612126	0.630481	0.980124
	C126	C	0.367774	0.630213	-0.002424
	C127	C	0.366459	0.384958	0.980937
	C128	C	-0.000437	0.627720	0.368130
	C129	C	0.980872	0.627866	0.612046
	C130	C	-0.002401	0.384977	0.611686
	C131	C	0.980813	0.385496	0.368214
	C132	C	0.868879	0.517148	0.111760
	C133	C	0.111275	0.498286	0.111660
	C134	C	0.110438	0.516623	0.868458
	C135	C	0.868154	0.498895	0.868199
	C136	C	0.111806	0.884312	0.497846
	C137	C	0.111764	0.128726	0.480216
	C138	C	0.867786	0.127558	0.497838
	C139	C	0.867154	0.883852	0.480453
	C140	C	0.499549	0.129194	0.866378
	C141	C	0.482342	0.127934	0.109459
	C142	C	0.500443	0.885562	0.110488
	C143	C	0.482264	0.886503	0.867617
	C144	C	0.370017	0.891193	0.667357
	C145	C	0.612320	0.121745	0.666748
	C146	C	0.610446	0.892618	0.311543
	C147	C	0.367535	0.120985	0.308717
	C148	C	0.667947	0.388359	0.875846
	C149	C	0.668762	0.630503	0.102557
	C150	C	0.312003	0.628268	0.874782
	C151	C	0.311225	0.386451	0.103612
	C152	C	0.875909	0.683027	0.370000
	C153	C	0.104643	0.683344	0.609835
	C154	C	0.873987	0.328616	0.609785
	C155	C	0.103900	0.328681	0.370115
	C156	C	0.874607	0.385065	0.668217
	C157	C	0.104306	0.626471	0.667692
	C158	C	0.876907	0.628635	0.310667
	C159	C	0.104154	0.385294	0.312554
	C160	C	0.370877	0.685081	0.874412
	C161	C	0.610509	0.686034	0.102925
	C162	C	0.609559	0.331748	0.875036
	C163	C	0.367920	0.327421	0.102980
	C164	C	0.666052	0.891873	0.369842
	C165	C	0.668059	0.122033	0.608112
	C166	C	0.312256	0.891055	0.609399
	C167	C	0.311549	0.121531	0.367594
	C168	C	0.869018	0.392998	0.167182
	C169	C	0.111481	0.621812	0.167814
	C170	C	0.108704	0.392173	0.813523
	C171	C	0.868952	0.622348	0.811355
	C172	C	0.167686	0.885050	0.374848
	C173	C	0.168316	0.127569	0.602506
	C174	C	0.812548	0.126041	0.374881
	C175	C	0.811669	0.886105	0.603318
	C176	C	0.375921	0.184215	0.867864
	C177	C	0.605794	0.184684	0.107557
	C178	C	0.376485	0.829659	0.107876
	C179	C	0.605969	0.831158	0.870134
	C180	C	0.377220	0.884739	0.166699
	C181	C	0.605485	0.128445	0.166663
	C182	C	0.376711	0.128234	0.809662
	C183	C	0.605875	0.887374	0.812474
	C184	C	0.868709	0.184317	0.375389
	C185	C	0.109656	0.184135	0.603136
	C186	C	0.109581	0.828249	0.375070
	C187	C	0.870202	0.829232	0.603760
	C188	C	0.165491	0.392445	0.870782
	C189	C	0.165813	0.623073	0.108013
	C190	C	0.812072	0.393442	0.109228
	C191	C	0.813510	0.623391	0.870210
	C192	C	0.393007	0.100415	0.586831
	C193	C	0.589115	0.911329	0.589370
	C194	C	0.588409	0.102602	0.390166
	C195	C	0.392377	0.912513	0.390436
	C196	C	0.588204	0.409536	0.083369
	C197	C	0.589365	0.607433	0.894717
	C198	C	0.390106	0.607434	0.083173
	C199	C	0.389344	0.408607	0.895435
	C200	C	0.085447	0.604505	0.391067
	C201	C	0.894842	0.604644	0.589019
	C202	C	0.083705	0.408252	0.589270
	C203	C	0.894614	0.408903	0.390174
	C204	C	0.892693	0.603058	0.088891
	C205	C	0.088032	0.411841	0.089447
	C206	C	0.088044	0.603404	0.890097
	C207	C	0.890549	0.412376	0.891049
	C208	C	0.089233	0.907522	0.583450
	C209	C	0.088870	0.105962	0.394711
	C210	C	0.890563	0.104611	0.583336
	C211	C	0.889371	0.906385	0.394598
	C212	C	0.586179	0.107000	0.889477
	C213	C	0.396667	0.103590	0.085896
	C214	C	0.586199	0.908978	0.088261
	C215	C	0.395885	0.909025	0.889579
	Zn216	Zn	0.491468	0.006894	0.739173
	Zn217	Zn	0.491005	0.006895	0.238627
	Zn218	Zn	0.740205	0.509295	-0.010483
	Zn219	Zn	0.238335	0.507806	-0.010289
	Zn220	Zn	-0.009756	0.755710	0.489134
	Zn221	Zn	-0.011432	0.256897	0.489171
	Zn222	Zn	-0.010490	0.506646	0.740509
	Zn223	Zn	-0.009382	0.506766	0.239863
	Zn224	Zn	0.491162	0.758645	-0.011011
	Zn225	Zn	0.489722	0.257296	-0.011594
	Zn226	Zn	0.739054	0.006789	0.488427
	Zn227	Zn	0.240243	0.006383	0.488606
	N228	N	0.405071	0.969057	0.667822
	N229	N	0.578468	0.043436	0.668766
	N230	N	0.576936	0.971027	0.310065
	N231	N	0.402410	0.043384	0.308076
	N232	N	0.669138	0.422082	0.953318
	N233	N	0.669915	0.596590	0.025251
	N234	N	0.309976	0.594949	0.952391
	N235	N	0.310470	0.421612	0.026780
	N236	N	0.953199	0.682589	0.405132
	N237	N	0.026783	0.684349	0.575743
	N238	N	0.951466	0.328549	0.575207
	N239	N	0.026198	0.328833	0.404204
	N240	N	0.952539	0.419462	0.669425
	N241	N	0.026268	0.592791	0.669167
	N242	N	0.954661	0.594561	0.309530
	N243	N	0.026518	0.419895	0.311129
	N244	N	0.404857	0.686493	0.951802
	N245	N	0.575910	0.686212	0.025828
	N246	N	0.574685	0.330715	0.951854
	N247	N	0.401626	0.326406	0.025543
	N248	N	0.666396	0.969605	0.404215
	N249	N	0.668410	0.043984	0.574263
	N250	N	0.311982	0.968672	0.574553
	N251	N	0.312091	0.044230	0.403050
	N252	N	0.903724	0.470901	0.168806
	N253	N	0.078282	0.543284	0.170243
	N254	N	0.075277	0.470458	0.811866
	N255	N	0.901724	0.543693	0.809664
	N256	N	0.169287	0.919223	0.452280
	N257	N	0.169849	0.094096	0.524958
	N258	N	0.811987	0.091319	0.452046
	N259	N	0.809649	0.919286	0.525594
	N260	N	0.453610	0.185145	0.902356
	N261	N	0.528257	0.184380	0.072677
	N262	N	0.454081	0.829987	0.073701
	N263	N	0.528082	0.830279	0.903649
	N264	N	0.455145	0.918843	0.168472
	N265	N	0.527454	0.094321	0.168107
	N266	N	0.454741	0.094875	0.808577
	N267	N	0.527889	0.921199	0.810943
	N268	N	0.902591	0.185158	0.452695
	N269	N	0.075300	0.185080	0.525987
	N270	N	0.075522	0.827824	0.452360
	N271	N	0.903844	0.827501	0.526266
	N272	N	0.166678	0.470749	0.904238
	N273	N	0.165750	0.545302	0.073888
	N274	N	0.811747	0.471613	0.075504
	N275	N	0.812916	0.545740	0.904934
	O276	O	0.980541	0.002122	1.027686
	H277	H	0.978017	-0.002543	1.033136
	H278	H	0.988564	0.003424	1.033763
	O279	O	0.491037	0.531841	0.461927
	H280	H	0.483399	0.521392	0.444753
	H281	H	0.488346	0.523445	0.454130
	O282	O	0.634689	0.411676	0.482083
	H283	H	0.621580	0.395835	0.503763
	H284	H	0.634681	0.412233	0.473613
	O285	O	0.330512	0.469100	0.484644
	H286	H	0.319847	0.456846	0.488704
	H287	H	0.319400	0.473883	0.480006
	O288	O	0.422798	0.619967	0.411074
	H289	H	0.422557	0.621527	0.412799
	H290	H	0.427887	0.620418	0.391614
	O291	O	0.465781	-0.486653	1.636055
	H292	H	0.464759	-0.480499	1.642668
	H293	H	0.474344	-0.491810	1.628094
	O294	O	0.945988	1.060456	-0.053996
	H295	H	0.944799	1.076590	-0.052506
	H296	H	0.941605	1.067681	-0.063437
	O297	O	1.077594	1.016959	-0.036961
	H298	H	1.071513	1.012844	-0.046460
	H299	H	1.072102	1.022647	-0.038890
	O300	O	0.472082	0.496455	0.525280
	H301	H	0.457127	0.497388	0.518175
	H302	H	0.476919	0.503112	0.539782
	O303	O	0.548161	0.381810	0.381271
	H304	H	0.542350	0.372272	0.376245
	H305	H	0.545194	0.385723	0.402223
	O306	O	0.571905	0.477918	0.600183
	H307	H	0.573790	0.476664	0.603986
	H308	H	0.566600	0.491706	0.602738
	O309	O	0.508097	0.499608	0.502756
	H310	H	0.522007	0.505658	0.492268
	H311	H	0.516211	0.493565	0.496042
	O312	O	1.031486	0.974829	0.920339
	H313	H	1.033350	0.971455	0.911952
	H314	H	1.026407	0.979583	0.915666
	O315	O	1.058828	1.087617	0.060699
	H316	H	1.057530	1.105417	0.058812
	H317	H	1.072797	1.081725	0.059209
	O318	O	0.060403	0.117657	1.114276
	H319	H	0.055189	0.115746	1.110108
	H320	H	0.062923	0.124253	1.100842
	O321	O	0.446967	0.450053	0.455825
	H322	H	0.443191	0.461128	0.463834
	H323	H	0.446554	0.441397	0.447841
	O324	O	-0.136555	0.941612	1.091356
	H325	H	-0.130896	0.934257	1.103678
	H326	H	-0.143374	0.933315	1.103312
	O327	O	0.022425	1.018446	0.935946
	H328	H	0.016318	1.008392	0.931958
	H329	H	0.025532	1.026652	0.938969
	O330	O	-0.041190	0.036522	0.007420
	H331	H	-0.031382	0.039108	0.008543
	H332	H	-0.050812	0.037163	0.009663
	O333	O	0.479298	0.540658	0.449242
	H334	H	0.487200	0.547892	0.444168
	H335	H	0.476499	0.546444	0.449138
	O336	O	-0.136092	0.080372	-0.010118
	H337	H	-0.145446	0.064665	0.000176
	H338	H	-0.127277	0.084146	-0.009896
	O339	O	-0.036064	-0.050126	-0.038705
	H340	H	-0.036525	-0.057477	-0.032751
	H341	H	-0.031233	-0.054684	-0.036505
	O342	O	0.415194	0.459026	0.608216
	H343	H	0.424572	0.469720	0.602438
	H344	H	0.401192	0.459777	0.612212
	O345	O	0.051057	0.999025	1.004340
	H346	H	0.040367	0.997147	0.995014
	H347	H	0.053924	1.000182	1.004123
	O348	O	0.383594	0.382687	0.511702
	H349	H	0.382424	0.370305	0.517120
	H350	H	0.391257	0.386265	0.516207
	O351	O	0.364461	0.590033	0.394174
	H352	H	0.363980	0.582384	0.392552
	H353	H	0.356083	0.602299	0.400700
	O354	O	0.065275	0.968437	-0.090651
	H355	H	0.068545	0.964301	-0.084712
	H356	H	0.058381	0.979559	-0.088333
	O357	O	0.578455	0.591487	0.601689
	H358	H	0.584076	0.582658	0.607083
	H359	H	0.593560	0.604349	0.596176
	O360	O	1.519995	-0.479743	1.478419
	H361	H	1.525588	-0.483728	1.488383
	H362	H	1.523608	-0.475788	1.478166
	O363	O	0.501124	0.455447	0.507418
	H364	H	0.488839	0.453556	0.509138
	H365	H	0.520674	0.472681	0.505360
	O366	O	0.478699	0.471429	0.475065
	H367	H	0.472354	0.474514	0.489134
	H368	H	0.472973	0.472667	0.486775
	O369	O	1.035351	-0.060759	-0.134600
	H370	H	1.040856	-0.060880	-0.140126
	H371	H	1.028956	-0.058340	-0.140056
	O372	O	0.577826	0.649374	0.521666
	H373	H	0.586224	0.653157	0.524470
	H374	H	0.567646	0.645071	0.511387
	O375	O	0.932304	0.017947	1.076099
	H376	H	0.926813	0.014612	1.080253
	H377	H	0.958706	0.014305	1.074771
	O378	O	0.039043	1.005497	0.093969
	H379	H	0.030479	1.010405	0.094621
	H380	H	0.046416	1.008969	0.093638
	O381	O	0.586885	0.437730	0.313394
	H382	H	0.590403	0.416680	0.307563
	H383	H	0.591626	0.429550	0.317505
	O384	O	0.961296	1.116730	-0.131645
	H385	H	0.964477	1.100456	-0.136495
	H386	H	0.954009	1.118897	-0.139205
	O387	O	1.390772	0.467403	1.621347
	H388	H	1.388089	0.473793	1.629866
	H389	H	1.382379	0.477532	1.608619
	O390	O	1.030513	0.915144	0.005534
	H391	H	1.024906	0.935390	0.000434
	H392	H	1.031335	0.905855	0.012061
	O393	O	0.569150	0.653068	0.417882
	H394	H	0.579487	0.658188	0.400900
	H395	H	0.567828	0.632756	0.416917
