data_Molecule from HDF5

_cell_length_a		16.245356
_cell_length_b		15.893698
_cell_length_c		16.392900
_cell_angle_alpha	89.584128
_cell_angle_beta	90.437083
_cell_angle_gamma	90.228524
_symmetry_space_group_name_H-M	'P 1'
_symmetry_Int_Tables_number		1

loop_
	_symmetry_equiv_pos_as_xyz
	x,y,z

loop_
	_atom_site_label
	_atom_site_type_symbol
	_atom_site_fract_x
	_atom_site_fract_y
	_atom_site_fract_z
	H0	H	0.405062	0.845280	0.720322
	H1	H	0.607243	0.178257	0.718339
	H2	H	0.605281	0.844318	0.293722
	H3	H	0.402476	0.175921	0.285715
	H4	H	0.721830	0.408686	0.843708
	H5	H	0.725304	0.611670	0.167227
	H6	H	0.285117	0.613358	0.844593
	H7	H	0.290436	0.406122	0.168446
	H8	H	0.837955	0.719375	0.410449
	H9	H	0.169550	0.724914	0.601901
	H10	H	0.839462	0.299970	0.599140
	H11	H	0.170184	0.302484	0.412891
	H12	H	0.842950	0.405765	0.723639
	H13	H	0.168295	0.615136	0.725052
	H14	H	0.844997	0.618439	0.283613
	H15	H	0.168513	0.411240	0.292797
	H16	H	0.407890	0.724189	0.841879
	H17	H	0.603323	0.722816	0.169531
	H18	H	0.598388	0.301180	0.840048
	H19	H	0.411526	0.295986	0.168527
	H20	H	0.713946	0.844928	0.409587
	H21	H	0.715523	0.179910	0.600855
	H22	H	0.290810	0.845549	0.604836
	H23	H	0.291905	0.178470	0.403261
	H24	H	0.905992	0.345952	0.223806
	H25	H	0.107631	0.678758	0.219435
	H26	H	0.106844	0.344725	0.793910
	H27	H	0.903597	0.675665	0.789189
	H28	H	0.220293	0.910051	0.343333
	H29	H	0.227007	0.116789	0.664583
	H30	H	0.784919	0.114854	0.341956
	H31	H	0.788686	0.910678	0.667321
	H32	H	0.339757	0.221665	0.907185
	H33	H	0.670398	0.221504	0.099385
	H34	H	0.340192	0.797875	0.098999
	H35	H	0.670313	0.799471	0.910471
	H36	H	0.343894	0.902192	0.222641
	H37	H	0.667315	0.114047	0.223853
	H38	H	0.345020	0.118994	0.781852
	H39	H	0.668614	0.910054	0.789916
	H40	H	0.908497	0.225500	0.340404
	H41	H	0.101068	0.222137	0.669585
	H42	H	0.097144	0.800443	0.340762
	H43	H	0.906642	0.797611	0.668847
	H44	H	0.212984	0.342882	0.913141
	H45	H	0.221375	0.677119	0.106210
	H46	H	0.794221	0.342300	0.105455
	H47	H	0.792902	0.677013	0.905330
	H48	H	0.412528	0.132266	0.591205
	H49	H	0.599280	0.888138	0.608929
	H50	H	0.597164	0.132503	0.413280
	H51	H	0.410801	0.891860	0.415861
	H52	H	0.598953	0.416551	0.120885
	H53	H	0.608365	0.606643	0.886126
	H54	H	0.419100	0.607913	0.122225
	H55	H	0.403402	0.410972	0.885477
	H56	H	0.119349	0.598287	0.418491
	H57	H	0.890631	0.601924	0.590860
	H58	H	0.126527	0.415089	0.612267
	H59	H	0.887810	0.423350	0.413552
	H60	H	0.122387	0.414011	0.594850
	H61	H	0.888869	0.591532	0.605165
	H62	H	0.125911	0.604948	0.401821
	H63	H	0.887557	0.422594	0.410321
	H64	H	0.403912	0.603748	0.124128
	H65	H	0.598034	0.594330	0.893183
	H66	H	0.602333	0.413859	0.122796
	H67	H	0.401424	0.425122	0.889369
	H68	H	0.594705	0.133169	0.407664
	H69	H	0.585873	0.894625	0.597945
	H70	H	0.416718	0.132085	0.598780
	H71	H	0.410151	0.889489	0.411475
	H72	H	0.912209	0.632305	0.101083
	H73	H	0.107048	0.388372	0.101528
	H74	H	0.107109	0.633958	0.917006
	H75	H	0.921072	0.392328	0.914502
	H76	H	0.096715	0.922045	0.619071
	H77	H	0.098662	0.100087	0.390021
	H78	H	0.902649	0.101189	0.621374
	H79	H	0.903713	0.913305	0.386482
	H80	H	0.626323	0.109612	0.905573
	H81	H	0.386615	0.107289	0.095433
	H82	H	0.626377	0.911688	0.106302
	H83	H	0.385223	0.910580	0.907299
	H84	H	0.620443	0.918715	0.092007
	H85	H	0.391328	0.095504	0.092322
	H86	H	0.621522	0.106710	0.916462
	H87	H	0.391933	0.922897	0.918410
	H88	H	0.912984	0.101509	0.617435
	H89	H	0.092414	0.108218	0.389576
	H90	H	0.097958	0.917760	0.621435
	H91	H	0.903012	0.923902	0.388820
	H92	H	0.091603	0.633254	0.903882
	H93	H	0.091626	0.390503	0.112781
	H94	H	0.922197	0.628427	0.095787
	H95	H	0.909953	0.390522	0.920716
	H96	H	0.420689	0.128402	0.591555
	H97	H	0.602811	0.891392	0.591796
	H98	H	0.591293	0.130014	0.412301
	H99	H	0.414079	0.891618	0.411948
	H100	H	0.603865	0.419080	0.121589
	H101	H	0.592655	0.609721	0.889300
	H102	H	0.414381	0.592201	0.118085
	H103	H	0.413711	0.418573	0.890899
	H104	H	0.125111	0.615743	0.416729
	H105	H	0.884520	0.609493	0.604721
	H106	H	0.120207	0.429295	0.603682
	H107	H	0.887337	0.420095	0.412493
	H108	H	0.911331	0.630065	0.089756
	H109	H	0.090988	0.394495	0.093886
	H110	H	0.090081	0.625902	0.922906
	H111	H	0.910266	0.387228	0.908350
	H112	H	0.100733	0.921797	0.621383
	H113	H	0.102099	0.109289	0.386264
	H114	H	0.909587	0.109955	0.622875
	H115	H	0.911709	0.918951	0.389608
	H116	H	0.622678	0.098008	0.907366
	H117	H	0.386424	0.097342	0.104521
	H118	H	0.621930	0.927163	0.106117
	H119	H	0.387763	0.927155	0.902461
	C120	C	0.385599	0.021249	0.624630
	C121	C	0.625689	1.002424	0.626608
	C122	C	0.623137	0.021015	0.384514
	C123	C	0.382564	1.001200	0.382209
	C124	C	0.628372	0.387718	0.013822
	C125	C	0.628499	0.632643	0.997153
	C126	C	0.382580	0.631751	0.014267
	C127	C	0.380782	0.387911	0.996572
	C128	C	0.014482	0.634669	0.383439
	C129	C	0.996132	0.632525	0.629310
	C130	C	0.014242	0.388862	0.629997
	C131	C	0.996168	0.392446	0.385122
	C132	C	0.885807	0.520173	0.126297
	C133	C	0.127179	0.501755	0.129852
	C134	C	0.124397	0.520113	0.887420
	C135	C	0.884266	0.500469	0.884597
	C136	C	0.125422	0.890966	0.513107
	C137	C	0.127271	0.134678	0.496292
	C138	C	0.880191	0.134715	0.512945
	C139	C	0.879366	0.889175	0.496170
	C140	C	0.514603	0.134155	0.881103
	C141	C	0.496458	0.130500	0.126393
	C142	C	0.514710	0.888154	0.128420
	C143	C	0.496692	0.890725	0.882904
	C144	C	0.385583	0.895532	0.682008
	C145	C	0.625591	0.128443	0.680607
	C146	C	0.623303	0.894412	0.331116
	C147	C	0.383763	0.126593	0.324528
	C148	C	0.682968	0.389768	0.891658
	C149	C	0.685687	0.630965	0.119038
	C150	C	0.324723	0.632072	0.892599
	C151	C	0.328268	0.387504	0.119696
	C152	C	0.888773	0.685680	0.387753
	C153	C	0.119986	0.688354	0.624329
	C154	C	0.889611	0.335189	0.623128
	C155	C	0.120549	0.338328	0.390646
	C156	C	0.891386	0.388067	0.684922
	C157	C	0.119540	0.633549	0.685488
	C158	C	0.892280	0.635309	0.324803
	C159	C	0.119601	0.392460	0.330704
	C160	C	0.386019	0.687075	0.891112
	C161	C	0.625196	0.686713	0.120042
	C162	C	0.621525	0.336011	0.890109
	C163	C	0.388248	0.332526	0.119626
	C164	C	0.677615	0.894850	0.388643
	C165	C	0.680010	0.129035	0.622361
	C166	C	0.328785	0.895556	0.624466
	C167	C	0.328411	0.127782	0.382838
	C168	C	0.886648	0.395114	0.184488
	C169	C	0.127351	0.627995	0.183305
	C170	C	0.124223	0.394293	0.832582
	C171	C	0.884616	0.625900	0.827450
	C172	C	0.181204	0.891324	0.391207
	C173	C	0.186110	0.134684	0.617283
	C174	C	0.824036	0.134144	0.390472
	C175	C	0.825676	0.890711	0.618506
	C176	C	0.390186	0.186959	0.885099
	C177	C	0.620485	0.185549	0.121899
	C178	C	0.390151	0.833446	0.122019
	C179	C	0.620811	0.836303	0.888302
	C180	C	0.392053	0.885570	0.183579
	C181	C	0.618984	0.131657	0.183638
	C182	C	0.392550	0.135849	0.822774
	C183	C	0.620109	0.891230	0.828361
	C184	C	0.885410	0.189302	0.389629
	C185	C	0.123593	0.187237	0.619704
	C186	C	0.119706	0.836984	0.390038
	C187	C	0.884661	0.834243	0.619353
	C188	C	0.176928	0.393329	0.892013
	C189	C	0.183815	0.627289	0.126628
	C190	C	0.831164	0.393317	0.125496
	C191	C	0.829274	0.626497	0.885216
	C192	C	0.409420	0.108288	0.600824
	C193	C	0.602759	0.914187	0.605549
	C194	C	0.600920	0.109065	0.405027
	C195	C	0.405037	0.913745	0.406043
	C196	C	0.607794	0.409794	0.099625
	C197	C	0.606232	0.610344	0.911598
	C198	C	0.405683	0.608218	0.099575
	C199	C	0.400181	0.411265	0.910773
	C200	C	0.101051	0.612845	0.405761
	C201	C	0.910278	0.608095	0.606989
	C202	C	0.100579	0.412405	0.609492
	C203	C	0.909894	0.415357	0.405800
	C204	C	0.908682	0.607632	0.102643
	C205	C	0.103574	0.413652	0.108836
	C206	C	0.102532	0.608178	0.908265
	C207	C	0.906887	0.412823	0.907849
	C208	C	0.104714	0.913796	0.598470
	C209	C	0.104512	0.112402	0.410703
	C210	C	0.902000	0.111166	0.598455
	C211	C	0.899925	0.911919	0.410458
	C212	C	0.601119	0.111359	0.903209
	C213	C	0.410307	0.106867	0.103937
	C214	C	0.600547	0.912193	0.107606
	C215	C	0.410649	0.913415	0.903347
	Zn216	Zn	0.506077	0.012586	0.753423
	Zn217	Zn	0.504817	0.009019	0.256629
	Zn218	Zn	0.757951	0.509706	0.005164
	Zn219	Zn	0.251831	0.509880	0.007290
	Zn220	Zn	0.003193	0.761003	0.504939
	Zn221	Zn	0.005033	0.263097	0.505654
	Zn222	Zn	0.006266	0.510250	0.759167
	Zn223	Zn	0.006485	0.512997	0.255861
	Zn224	Zn	0.505508	0.761861	0.005285
	Zn225	Zn	0.504407	0.259840	0.003858
	Zn226	Zn	0.749762	0.011651	0.504461
	Zn227	Zn	0.256664	0.012434	0.504186
	N228	N	0.420057	0.974860	0.682524
	N229	N	0.592645	0.048629	0.683390
	N230	N	0.590010	0.973797	0.328414
	N231	N	0.416646	0.046725	0.323867
	N232	N	0.687553	0.420889	0.969801
	N233	N	0.687691	0.597842	0.041692
	N234	N	0.322675	0.598214	0.970280
	N235	N	0.323442	0.421173	0.042208
	N236	N	0.965674	0.685486	0.423670
	N237	N	0.042261	0.687849	0.590145
	N238	N	0.966943	0.335412	0.589813
	N239	N	0.042843	0.338036	0.423841
	N240	N	0.970068	0.420798	0.689334
	N241	N	0.041441	0.599590	0.688720
	N242	N	0.971414	0.604515	0.321888
	N243	N	0.041514	0.425669	0.327405
	N244	N	0.421173	0.687070	0.967555
	N245	N	0.590402	0.687787	0.043144
	N246	N	0.588232	0.334601	0.967139
	N247	N	0.420101	0.332320	0.042206
	N248	N	0.677740	0.974388	0.421233
	N249	N	0.680145	0.049494	0.589433
	N250	N	0.328750	0.974512	0.589466
	N251	N	0.327752	0.049008	0.418127
	N252	N	0.919819	0.474927	0.185307
	N253	N	0.092672	0.548929	0.185231
	N254	N	0.092089	0.474351	0.829513
	N255	N	0.918078	0.546636	0.826849
	N256	N	0.185011	0.924161	0.468866
	N257	N	0.188534	0.102616	0.539397
	N258	N	0.820625	0.100849	0.468161
	N259	N	0.822105	0.924133	0.540945
	N260	N	0.467207	0.186026	0.920754
	N261	N	0.543119	0.185166	0.086945
	N262	N	0.467441	0.834494	0.088383
	N263	N	0.543259	0.835824	0.921449
	N264	N	0.470367	0.918958	0.187664
	N265	N	0.540697	0.098364	0.186503
	N266	N	0.471024	0.103588	0.820375
	N267	N	0.541884	0.924430	0.824627
	N268	N	0.919619	0.189730	0.466796
	N269	N	0.087664	0.187234	0.543417
	N270	N	0.085895	0.836434	0.466732
	N271	N	0.917329	0.833160	0.542147
	N272	N	0.177251	0.472451	0.925581
	N273	N	0.183913	0.547614	0.094235
	N274	N	0.830319	0.472128	0.090055
	N275	N	0.828805	0.547338	0.919904
	O276	O	0.558599	0.423250	0.410835
	H277	H	0.556365	0.429716	0.412686
	H278	H	0.566499	0.416215	0.408980
	O279	O	0.497631	0.501589	0.645711
	H280	H	0.505943	0.495100	0.647353
	H281	H	0.493557	0.508276	0.647800
	O282	O	0.984464	0.931763	0.024984
	H283	H	0.978965	0.922084	0.021933
	H284	H	0.989656	0.930077	0.031726
	O285	O	0.944350	0.123421	0.961018
	H286	H	0.942740	0.125008	0.958576
	H287	H	0.948599	0.119860	0.955943
	O288	O	0.192801	-0.052688	-0.074979
	H289	H	0.216466	-0.055873	-0.082220
	H290	H	0.190378	-0.044058	-0.055152
	O291	O	0.539883	0.448190	0.365696
	H292	H	0.535347	0.456120	0.355446
	H293	H	0.541896	0.447310	0.377087
	O294	O	0.516607	0.586773	0.534621
	H295	H	0.511855	0.591142	0.534632
	H296	H	0.521646	0.596421	0.535574
	O297	O	-0.040368	0.046174	0.928120
	H298	H	-0.028124	0.036784	0.918929
	H299	H	-0.044201	0.052379	0.922146
	O300	O	0.467286	0.471855	0.452965
	H301	H	0.469630	0.467333	0.449151
	H302	H	0.461784	0.493041	0.448632
	O303	O	0.832289	1.056190	-0.072549
	H304	H	0.826166	1.054635	-0.085714
	H305	H	0.828799	1.064564	-0.073896
	O306	O	-0.597645	1.542464	0.442666
	H307	H	-0.586093	1.541581	0.439560
	H308	H	-0.607495	1.543066	0.436012
	O309	O	0.553709	0.580201	0.466157
	H310	H	0.563342	0.565557	0.466976
	H311	H	0.544717	0.591017	0.467071
	O312	O	0.109880	0.026243	0.067155
	H313	H	0.099575	0.027645	0.063919
	H314	H	0.127431	0.022410	0.073127
	O315	O	1.125914	-0.020769	-0.040583
	H316	H	1.126310	-0.034951	-0.040686
	H317	H	1.114657	-0.018910	-0.022420
	O318	O	1.067963	0.871285	1.051383
	H319	H	1.064419	0.870960	1.054070
	H320	H	1.066627	0.869043	1.038057
	O321	O	0.015558	0.044062	1.030291
	H322	H	0.008872	0.045803	1.030514
	H323	H	0.010326	0.050597	1.041855
	O324	O	0.487683	0.465414	0.451506
	H325	H	0.494768	0.459036	0.464494
	H326	H	0.489315	0.453554	0.445638
	O327	O	-0.021374	-0.026020	-0.044963
	H328	H	-0.014231	-0.025919	-0.033361
	H329	H	-0.012812	-0.016064	-0.039920
	O330	O	0.406713	0.492141	0.529578
	H331	H	0.405538	0.492156	0.528600
	H332	H	0.404455	0.490681	0.529427
	O333	O	-0.390889	0.545582	0.592788
	H334	H	-0.396889	0.533838	0.588631
	H335	H	-0.377671	0.549281	0.594986
	O336	O	-0.119105	0.097473	0.002478
	H337	H	-0.126935	0.112225	-0.012433
	H338	H	-0.118046	0.093975	-0.002111
	O339	O	0.904504	0.036320	1.093081
	H340	H	0.880828	0.029850	1.094356
	H341	H	0.895346	0.033218	1.095503
	O342	O	1.077801	1.071885	1.017173
	H343	H	1.073999	1.080769	1.021895
	H344	H	1.086426	1.077903	1.009006
	O345	O	1.133488	1.100494	0.060664
	H346	H	1.134936	1.098983	0.068900
	H347	H	1.139588	1.114632	0.060234
	O348	O	0.545652	0.399271	0.575383
	H349	H	0.534878	0.396593	0.577755
	H350	H	0.541154	0.408853	0.553376
	O351	O	0.553158	0.517151	0.477030
	H352	H	0.565024	0.513354	0.485304
	H353	H	0.556053	0.522836	0.476259
	O354	O	0.491490	0.628417	0.605816
	H355	H	0.492284	0.616115	0.606817
	H356	H	0.496684	0.623469	0.608939
	O357	O	0.954595	-0.049863	0.958821
	H358	H	0.962610	-0.050347	0.963626
	H359	H	0.971263	-0.054760	0.957881
	O360	O	0.499329	0.480430	0.463355
	H361	H	0.494958	0.483653	0.479754
	H362	H	0.515107	0.481397	0.459280
	O363	O	1.034693	-0.135738	1.028263
	H364	H	1.035176	-0.124378	1.025860
	H365	H	1.030014	-0.127968	1.024932
	O366	O	0.545867	0.652992	0.576140
	H367	H	0.547346	0.663103	0.590813
	H368	H	0.550566	0.651636	0.568342
	O369	O	0.938350	0.047955	0.940512
	H370	H	0.939036	0.044244	0.935727
	H371	H	0.924120	0.062491	0.935994
	O372	O	-0.018758	-0.074143	-0.061282
	H373	H	-0.030700	-0.068297	-0.061172
	H374	H	-0.010721	-0.076928	-0.070623
	O375	O	1.029553	0.098532	0.045424
	H376	H	1.035878	0.084704	0.048752
	H377	H	1.035486	0.088731	0.052136
	O378	O	0.504294	0.553855	0.534299
	H379	H	0.485376	0.554080	0.536007
	H380	H	0.516822	0.554615	0.526683
	O381	O	0.539765	0.437218	0.545608
	H382	H	0.539435	0.444511	0.549067
	H383	H	0.535476	0.440224	0.536755
