data_Molecule from HDF5

_cell_length_a		16.187391
_cell_length_b		16.063782
_cell_length_c		16.305440
_cell_angle_alpha	90.066566
_cell_angle_beta	89.922345
_cell_angle_gamma	88.306490
_symmetry_space_group_name_H-M	'P 1'
_symmetry_Int_Tables_number		1

loop_
	_symmetry_equiv_pos_as_xyz
	x,y,z

loop_
	_atom_site_label
	_atom_site_type_symbol
	_atom_site_fract_x
	_atom_site_fract_y
	_atom_site_fract_z
	H0	H	0.410466	0.841165	0.722391
	H1	H	0.601669	0.171210	0.723355
	H2	H	0.613762	0.840529	0.292059
	H3	H	0.400738	0.169946	0.292553
	H4	H	0.725757	0.400433	0.840457
	H5	H	0.719488	0.600442	0.168038
	H6	H	0.288120	0.609636	0.841645
	H7	H	0.293421	0.406110	0.166378
	H8	H	0.842143	0.726715	0.406003
	H9	H	0.171661	0.712786	0.600379
	H10	H	0.838784	0.303750	0.598823
	H11	H	0.167159	0.283071	0.402295
	H12	H	0.843765	0.408969	0.722586
	H13	H	0.169470	0.604562	0.720284
	H14	H	0.842772	0.612490	0.287985
	H15	H	0.169898	0.398743	0.288869
	H16	H	0.403473	0.726592	0.842958
	H17	H	0.600199	0.714623	0.170202
	H18	H	0.609084	0.285742	0.841458
	H19	H	0.412809	0.296767	0.169078
	H20	H	0.726852	0.841421	0.408167
	H21	H	0.711833	0.174215	0.605183
	H22	H	0.298374	0.839317	0.605349
	H23	H	0.286335	0.169960	0.407801
	H24	H	0.910839	0.340988	0.219079
	H25	H	0.103971	0.670057	0.219384
	H26	H	0.113857	0.340295	0.787833
	H27	H	0.902696	0.671692	0.791147
	H28	H	0.227671	0.899395	0.343887
	H29	H	0.217193	0.104073	0.669022
	H30	H	0.784654	0.111485	0.343788
	H31	H	0.796281	0.912061	0.670543
	H32	H	0.342564	0.225751	0.909321
	H33	H	0.672927	0.211842	0.103044
	H34	H	0.340680	0.800663	0.103661
	H35	H	0.670930	0.786965	0.908922
	H36	H	0.343981	0.907389	0.224967
	H37	H	0.670184	0.100875	0.222590
	H38	H	0.342757	0.114114	0.790264
	H39	H	0.671040	0.899096	0.790469
	H40	H	0.901450	0.223596	0.341099
	H41	H	0.097638	0.218567	0.668597
	H42	H	0.108352	0.789393	0.341388
	H43	H	0.909826	0.793941	0.668664
	H44	H	0.227804	0.341280	0.904089
	H45	H	0.213665	0.672278	0.101480
	H46	H	0.801731	0.337716	0.099294
	H47	H	0.785279	0.668973	0.902892
	H48	H	0.413743	0.120744	0.590411
	H49	H	0.605656	0.888956	0.595380
	H50	H	0.588581	0.123324	0.410188
	H51	H	0.423380	0.888793	0.416306
	H52	H	0.598652	0.408075	0.120330
	H53	H	0.593166	0.590467	0.891189
	H54	H	0.410083	0.605292	0.122942
	H55	H	0.416982	0.408930	0.885376
	H56	H	0.122357	0.592828	0.414032
	H57	H	0.887951	0.596158	0.603290
	H58	H	0.119348	0.417336	0.591512
	H59	H	0.890805	0.428018	0.410573
	H60	H	0.127249	0.409866	0.604035
	H61	H	0.886935	0.608613	0.597384
	H62	H	0.123995	0.590628	0.405309
	H63	H	0.884606	0.418060	0.399983
	H64	H	0.405589	0.601190	0.122361
	H65	H	0.593134	0.601167	0.887674
	H66	H	0.609639	0.403410	0.124265
	H67	H	0.412731	0.420811	0.888199
	H68	H	0.593953	0.124101	0.417652
	H69	H	0.606068	0.886438	0.601870
	H70	H	0.400217	0.127373	0.600434
	H71	H	0.415493	0.885885	0.416183
	H72	H	0.912744	0.622240	0.091875
	H73	H	0.094291	0.387238	0.100001
	H74	H	0.097147	0.626065	0.905591
	H75	H	0.921424	0.384830	0.901748
	H76	H	0.101619	0.898107	0.624976
	H77	H	0.096335	0.093355	0.388648
	H78	H	0.911942	0.106833	0.621491
	H79	H	0.914209	0.918587	0.389305
	H80	H	0.618659	0.084320	0.920355
	H81	H	0.390189	0.103870	0.095932
	H82	H	0.622029	0.912055	0.095151
	H83	H	0.389337	0.916441	0.916654
	H84	H	0.625429	0.911585	0.105063
	H85	H	0.389492	0.097890	0.102439
	H86	H	0.626184	0.088552	0.902064
	H87	H	0.391209	0.923348	0.912963
	H88	H	0.905806	0.108900	0.624116
	H89	H	0.096327	0.092840	0.389634
	H90	H	0.111959	0.914818	0.624355
	H91	H	0.916496	0.919352	0.389960
	H92	H	0.091133	0.623146	0.910653
	H93	H	0.103096	0.390656	0.086428
	H94	H	0.906745	0.625308	0.095655
	H95	H	0.926550	0.390227	0.915070
	H96	H	0.416108	0.124978	0.606716
	H97	H	0.599694	0.888989	0.599758
	H98	H	0.596987	0.126596	0.409455
	H99	H	0.420592	0.885623	0.409880
	H100	H	0.608012	0.415160	0.121101
	H101	H	0.602349	0.594286	0.886815
	H102	H	0.411222	0.599744	0.120382
	H103	H	0.424648	0.417835	0.890931
	H104	H	0.126153	0.599705	0.408403
	H105	H	0.891207	0.599084	0.589639
	H106	H	0.125446	0.402701	0.590553
	H107	H	0.886837	0.413079	0.414972
	H108	H	0.913653	0.623683	0.099105
	H109	H	0.111363	0.383627	0.099717
	H110	H	0.099084	0.624322	0.913783
	H111	H	0.912669	0.385345	0.914004
	H112	H	0.092736	0.916416	0.618082
	H113	H	0.096003	0.093773	0.388572
	H114	H	0.905557	0.101591	0.622799
	H115	H	0.915491	0.917036	0.388868
	H116	H	0.625413	0.103331	0.916232
	H117	H	0.386367	0.106550	0.103869
	H118	H	0.625605	0.902795	0.098956
	H119	H	0.387587	0.917699	0.908971
	C120	C	0.384542	0.014780	0.627804
	C121	C	0.627865	0.998108	0.628113
	C122	C	0.627380	0.015257	0.384306
	C123	C	0.386302	0.996081	0.385338
	C124	C	0.633764	0.378881	0.013509
	C125	C	0.625371	0.623799	0.996416
	C126	C	0.380999	0.631387	0.013893
	C127	C	0.389103	0.387427	0.996064
	C128	C	0.015408	0.627709	0.381059
	C129	C	0.997600	0.627563	0.625108
	C130	C	0.014873	0.384970	0.624800
	C131	C	0.996110	0.385120	0.380551
	C132	C	0.885816	0.514058	0.124199
	C133	C	0.128094	0.496756	0.124427
	C134	C	0.129203	0.515147	0.881236
	C135	C	0.886694	0.496160	0.881714
	C136	C	0.131542	0.880222	0.514802
	C137	C	0.124198	0.124184	0.496719
	C138	C	0.879046	0.133394	0.514386
	C139	C	0.887254	0.888799	0.497462
	C140	C	0.515166	0.126450	0.884384
	C141	C	0.497849	0.127656	0.128711
	C142	C	0.515829	0.883324	0.128866
	C143	C	0.497889	0.885316	0.884084
	C144	C	0.389693	0.890447	0.683994
	C145	C	0.622154	0.122424	0.684499
	C146	C	0.631203	0.890252	0.329859
	C147	C	0.382669	0.120591	0.330107
	C148	C	0.687978	0.380526	0.889777
	C149	C	0.680886	0.620768	0.119620
	C150	C	0.325910	0.630017	0.890889
	C151	C	0.332811	0.388336	0.118474
	C152	C	0.891671	0.687791	0.384360
	C153	C	0.122098	0.677897	0.621514
	C154	C	0.889298	0.337006	0.620898
	C155	C	0.118826	0.323210	0.382345
	C156	C	0.891928	0.389321	0.682607
	C157	C	0.120814	0.624058	0.681348
	C158	C	0.891950	0.631127	0.325559
	C159	C	0.120187	0.380939	0.325887
	C160	C	0.383338	0.687991	0.891382
	C161	C	0.621520	0.677368	0.120773
	C162	C	0.630499	0.322989	0.890333
	C163	C	0.391932	0.333499	0.119749
	C164	C	0.687496	0.890935	0.387753
	C165	C	0.677047	0.123790	0.625773
	C166	C	0.333759	0.889523	0.625781
	C167	C	0.325660	0.120444	0.387439
	C168	C	0.890621	0.389866	0.180204
	C169	C	0.123905	0.620861	0.180861
	C170	C	0.132317	0.390233	0.825459
	C171	C	0.884219	0.621392	0.827854
	C172	C	0.188626	0.880699	0.392222
	C173	C	0.178667	0.123086	0.620111
	C174	C	0.823033	0.131303	0.391961
	C175	C	0.833203	0.891421	0.621117
	C176	C	0.391572	0.186661	0.887888
	C177	C	0.622992	0.176915	0.124287
	C178	C	0.390772	0.834231	0.125329
	C179	C	0.621663	0.825656	0.887491
	C180	C	0.392454	0.887823	0.185419
	C181	C	0.621538	0.121687	0.183992
	C182	C	0.391837	0.131035	0.828786
	C183	C	0.621673	0.881840	0.828782
	C184	C	0.881217	0.187144	0.390600
	C185	C	0.119552	0.180641	0.619811
	C186	C	0.129243	0.825842	0.390876
	C187	C	0.889866	0.832740	0.620281
	C188	C	0.189070	0.390649	0.883222
	C189	C	0.178634	0.621997	0.122020
	C190	C	0.836245	0.388230	0.120571
	C191	C	0.825902	0.620126	0.883511
	C192	C	0.403919	0.101680	0.605701
	C193	C	0.609416	0.910608	0.605599
	C194	C	0.600903	0.102285	0.405984
	C195	C	0.412225	0.909234	0.407475
	C196	C	0.611862	0.401909	0.099600
	C197	C	0.602892	0.601854	0.910827
	C198	C	0.402643	0.608747	0.099671
	C199	C	0.411593	0.409513	0.910369
	C200	C	0.101891	0.601684	0.403007
	C201	C	0.911115	0.607401	0.603105
	C202	C	0.101601	0.404124	0.601878
	C203	C	0.909843	0.411928	0.402154
	C204	C	0.905256	0.601358	0.102007
	C205	C	0.108678	0.409819	0.102055
	C206	C	0.103294	0.602063	0.903394
	C207	C	0.912628	0.409305	0.903824
	C208	C	0.108856	0.903007	0.600197
	C209	C	0.102381	0.100552	0.411146
	C210	C	0.901295	0.112208	0.600557
	C211	C	0.909058	0.911588	0.411581
	C212	C	0.601371	0.099858	0.906427
	C213	C	0.411179	0.108509	0.107251
	C214	C	0.602230	0.902891	0.106387
	C215	C	0.411560	0.911610	0.906297
	Zn216	Zn	0.506308	0.006224	0.755030
	Zn217	Zn	0.506296	0.004840	0.256184
	Zn218	Zn	0.758729	0.503517	0.003104
	Zn219	Zn	0.256162	0.505972	0.003985
	Zn220	Zn	0.007193	0.755691	0.504451
	Zn221	Zn	0.003238	0.257603	0.503107
	Zn222	Zn	0.007509	0.505944	0.753663
	Zn223	Zn	0.006951	0.505781	0.252342
	Zn224	Zn	0.505551	0.756975	0.006528
	Zn225	Zn	0.507805	0.255409	0.005861
	Zn226	Zn	0.754695	0.008842	0.506371
	Zn227	Zn	0.257488	0.003672	0.505799
	N228	N	0.420548	0.969453	0.685584
	N229	N	0.591963	0.043248	0.685828
	N230	N	0.594435	0.968542	0.327498
	N231	N	0.419735	0.042221	0.328580
	N232	N	0.690086	0.414404	0.967289
	N233	N	0.683471	0.588124	0.041390
	N234	N	0.324113	0.595858	0.968068
	N235	N	0.330914	0.421286	0.040594
	N236	N	0.969571	0.685856	0.417890
	N237	N	0.044282	0.680468	0.587305
	N238	N	0.966793	0.334160	0.585495
	N239	N	0.040801	0.325814	0.415592
	N240	N	0.970981	0.418441	0.685087
	N241	N	0.042503	0.593296	0.683765
	N242	N	0.969963	0.594552	0.323361
	N243	N	0.042769	0.418749	0.324683
	N244	N	0.416694	0.689224	0.968998
	N245	N	0.587722	0.679364	0.043284
	N246	N	0.597569	0.321665	0.968195
	N247	N	0.426501	0.332923	0.042646
	N248	N	0.685200	0.969817	0.421017
	N249	N	0.680953	0.045537	0.591620
	N250	N	0.330342	0.967732	0.591587
	N251	N	0.327862	0.041953	0.420931
	N252	N	0.920633	0.469291	0.182460
	N253	N	0.093314	0.542032	0.182695
	N254	N	0.095621	0.468613	0.824201
	N255	N	0.921504	0.543174	0.826688
	N256	N	0.190667	0.913773	0.470249
	N257	N	0.181402	0.088597	0.542692
	N258	N	0.821358	0.098676	0.469879
	N259	N	0.831382	0.925556	0.543786
	N260	N	0.469362	0.184055	0.921620
	N261	N	0.545106	0.180869	0.090603
	N262	N	0.468379	0.831214	0.090792
	N263	N	0.543626	0.827787	0.921253
	N264	N	0.471319	0.917449	0.187778
	N265	N	0.542809	0.091738	0.186732
	N266	N	0.469859	0.094295	0.826477
	N267	N	0.543561	0.918141	0.826443
	N268	N	0.915302	0.188703	0.467784
	N269	N	0.086317	0.181401	0.542115
	N270	N	0.094381	0.825349	0.467828
	N271	N	0.922920	0.831042	0.542443
	N272	N	0.187153	0.469222	0.917237
	N273	N	0.181512	0.543758	0.087583
	N274	N	0.833301	0.466309	0.086283
	N275	N	0.827095	0.541206	0.916132
	O276	O	0.436142	0.515916	0.452012
	H277	H	0.432925	0.519403	0.450680
	H278	H	0.436491	0.518623	0.449784
	O279	O	0.478594	0.447517	0.520851
	H280	H	0.478957	0.451851	0.522728
	H281	H	0.476939	0.453322	0.521719
	O282	O	0.986342	1.043530	-0.105897
	H283	H	0.995182	1.043255	-0.106273
	H284	H	0.984350	1.048639	-0.109368
	O285	O	1.103330	-0.000599	1.090044
	H286	H	1.107331	0.007571	1.098357
	H287	H	1.102624	-0.003385	1.097067
	O288	O	0.130918	0.103329	0.047305
	H289	H	0.120968	0.106172	0.045310
	H290	H	0.120914	0.109050	0.040242
	O291	O	0.532975	0.435694	0.503412
	H292	H	0.525049	0.448762	0.503270
	H293	H	0.539330	0.438006	0.513383
	O294	O	0.495333	0.520552	0.413920
	H295	H	0.492618	0.517191	0.405647
	H296	H	0.490735	0.519656	0.421254
	O297	O	0.010866	-0.016412	1.020514
	H298	H	0.012323	-0.016889	1.004300
	H299	H	0.015016	-0.002299	1.020025
	O300	O	0.365625	0.532444	0.468796
	H301	H	0.358671	0.540128	0.457045
	H302	H	0.364039	0.529256	0.468445
	O303	O	1.039123	0.888810	-0.048925
	H304	H	1.039858	0.885320	-0.055152
	H305	H	1.050405	0.894740	-0.044978
	O306	O	-0.505869	1.499659	0.532899
	H307	H	-0.508544	1.504652	0.529003
	H308	H	-0.515209	1.497008	0.531333
	O309	O	0.476369	0.569361	0.433784
	H310	H	0.479133	0.559852	0.437683
	H311	H	0.474445	0.567485	0.444595
	O312	O	-0.069692	-0.003130	-0.023574
	H313	H	-0.073599	0.007055	-0.021588
	H314	H	-0.066822	-0.010658	-0.020028
	O315	O	0.937068	0.025669	0.136026
	H316	H	0.940481	0.019269	0.136919
	H317	H	0.935771	0.024035	0.132723
	O318	O	0.890610	0.945553	1.039151
	H319	H	0.891558	0.950185	1.036033
	H320	H	0.895463	0.937454	1.047200
	O321	O	-0.056056	0.028459	0.925723
	H322	H	-0.062358	0.028378	0.925676
	H323	H	-0.041452	0.027112	0.928168
	O324	O	0.564330	0.457642	0.506905
	H325	H	0.556630	0.452501	0.500258
	H326	H	0.569157	0.456395	0.507199
	O327	O	-0.074140	-0.097377	0.010767
	H328	H	-0.088557	-0.092473	0.003798
	H329	H	-0.083880	-0.103975	0.012789
	O330	O	0.572751	0.504220	0.521686
	H331	H	0.575273	0.497319	0.520079
	H332	H	0.561639	0.505308	0.506343
	O333	O	-0.473581	0.476459	0.478774
	H334	H	-0.470378	0.471673	0.478550
	H335	H	-0.482857	0.479299	0.490808
	O336	O	-0.073554	0.018942	-0.037893
	H337	H	-0.080485	0.027116	-0.037016
	H338	H	-0.074747	0.008043	-0.043961
	O339	O	0.441206	0.622601	0.499641
	H340	H	0.425991	0.625695	0.497335
	H341	H	0.453999	0.617801	0.491620
	O342	O	1.033779	0.981097	0.945047
	H343	H	1.022462	0.982235	0.940473
	H344	H	1.031653	0.972387	0.943290
	O345	O	0.959060	0.985162	0.080312
	H346	H	0.948021	0.986993	0.071358
	H347	H	0.963911	0.978921	0.078609
	O348	O	0.431881	0.507082	0.499590
	H349	H	0.444260	0.505575	0.498647
	H350	H	0.429493	0.507251	0.499708
	O351	O	0.557556	0.608204	0.468631
	H352	H	0.563155	0.603794	0.477114
	H353	H	0.554546	0.617658	0.467081
	O354	O	0.515657	0.450500	0.560895
	H355	H	0.527329	0.447044	0.555209
	H356	H	0.514695	0.437903	0.546921
	O357	O	1.074429	0.034744	1.032985
	H358	H	1.063338	0.038236	1.041791
	H359	H	1.085414	0.032833	1.035357
	O360	O	0.502546	0.540926	0.606485
	H361	H	0.510917	0.545505	0.602132
	H362	H	0.504257	0.544473	0.609595
	O363	O	0.986057	0.025849	1.150593
	H364	H	0.980131	0.018971	1.157381
	H365	H	0.985417	0.021146	1.146152
	O366	O	1.057799	0.994281	1.049012
	H367	H	1.058305	0.985193	1.041861
	H368	H	1.061022	1.008388	1.043529
	O369	O	1.073883	0.004576	0.862608
	H370	H	1.079316	-0.000189	0.860540
	H371	H	1.058402	0.008031	0.867667
	O372	O	0.119080	0.108863	0.041089
	H373	H	0.122232	0.112282	0.043474
	H374	H	0.135728	0.109741	0.041432
	O375	O	1.069229	-0.072530	-0.050519
	H376	H	1.071739	-0.076248	-0.054716
	H377	H	1.065807	-0.071326	-0.057670
	O378	O	0.536903	0.467228	0.536896
	H379	H	0.542827	0.474096	0.540150
	H380	H	0.544013	0.468855	0.531146
	O381	O	0.491088	0.571104	0.508798
	H382	H	0.486644	0.569035	0.510397
	H383	H	0.490220	0.573497	0.512709
