data_Molecule from HDF5

_cell_length_a		16.666569
_cell_length_b		16.550154
_cell_length_c		16.501238
_cell_angle_alpha	90.046259
_cell_angle_beta	89.888076
_cell_angle_gamma	89.986112
_symmetry_space_group_name_H-M	'P 1'
_symmetry_Int_Tables_number		1

loop_
	_symmetry_equiv_pos_as_xyz
	x,y,z

loop_
	_atom_site_label
	_atom_site_type_symbol
	_atom_site_fract_x
	_atom_site_fract_y
	_atom_site_fract_z
	H0	H	0.385617	0.836915	0.708873
	H1	H	0.594145	0.150009	0.710710
	H2	H	0.591959	0.836149	0.269922
	H3	H	0.385049	0.151804	0.268179
	H4	H	0.709438	0.389643	0.830740
	H5	H	0.710820	0.599642	0.144680
	H6	H	0.269813	0.596668	0.832279
	H7	H	0.267387	0.385670	0.145502
	H8	H	0.834311	0.715022	0.385231
	H9	H	0.146552	0.713781	0.592894
	H10	H	0.833605	0.271033	0.594940
	H11	H	0.144211	0.270084	0.382461
	H12	H	0.834577	0.388331	0.711446
	H13	H	0.146270	0.596917	0.709381
	H14	H	0.834220	0.598581	0.267990
	H15	H	0.144703	0.386748	0.265588
	H16	H	0.387540	0.710824	0.831462
	H17	H	0.592246	0.713061	0.145430
	H18	H	0.593553	0.274173	0.830178
	H19	H	0.386115	0.272967	0.147259
	H20	H	0.708369	0.836222	0.385594
	H21	H	0.712693	0.148825	0.597473
	H22	H	0.267297	0.838082	0.595531
	H23	H	0.265758	0.149761	0.381607
	H24	H	0.884974	0.336630	0.209703
	H25	H	0.094113	0.649850	0.209814
	H26	H	0.097087	0.336863	0.765296
	H27	H	0.888779	0.650837	0.771014
	H28	H	0.213581	0.886226	0.333210
	H29	H	0.212032	0.101884	0.643998
	H30	H	0.765775	0.100295	0.332843
	H31	H	0.769812	0.890220	0.646714
	H32	H	0.334705	0.216888	0.883134
	H33	H	0.646466	0.214513	0.093321
	H34	H	0.333423	0.772573	0.094642
	H35	H	0.642380	0.768356	0.879295
	H36	H	0.334095	0.889351	0.211440
	H37	H	0.645940	0.098617	0.210378
	H38	H	0.334773	0.101048	0.765780
	H39	H	0.643528	0.886505	0.764723
	H40	H	0.882243	0.215693	0.332204
	H41	H	0.093925	0.215537	0.645170
	H42	H	0.095735	0.772008	0.332655
	H43	H	0.888115	0.776170	0.647830
	H44	H	0.213607	0.336968	0.881857
	H45	H	0.213517	0.647860	0.097372
	H46	H	0.765583	0.338083	0.097368
	H47	H	0.771553	0.649858	0.884987
	H48	H	0.400824	0.105306	0.574583
	H49	H	0.578123	0.879830	0.580746
	H50	H	0.578405	0.105272	0.404525
	H51	H	0.402313	0.883003	0.398221
	H52	H	0.573808	0.403116	0.101014
	H53	H	0.577702	0.584058	0.875890
	H54	H	0.401077	0.581332	0.101840
	H55	H	0.405210	0.405025	0.878734
	H56	H	0.100343	0.586343	0.404780
	H57	H	0.878526	0.584991	0.578270
	H58	H	0.098278	0.409207	0.575847
	H59	H	0.876504	0.399677	0.400291
	H60	H	0.102275	0.401704	0.580733
	H61	H	0.878747	0.583097	0.580711
	H62	H	0.098954	0.577207	0.398685
	H63	H	0.880758	0.406526	0.404057
	H64	H	0.401091	0.582889	0.102428
	H65	H	0.582365	0.582597	0.873546
	H66	H	0.583424	0.400649	0.103318
	H67	H	0.401182	0.403239	0.876187
	H68	H	0.582343	0.107664	0.399945
	H69	H	0.575013	0.884130	0.575270
	H70	H	0.399338	0.106868	0.577363
	H71	H	0.401851	0.884089	0.402958
	H72	H	0.893280	0.607486	0.078689
	H73	H	0.074809	0.381360	0.080407
	H74	H	0.081349	0.604063	0.903550
	H75	H	0.900751	0.380616	0.897823
	H76	H	0.086861	0.906966	0.603739
	H77	H	0.083680	0.078913	0.374938
	H78	H	0.897612	0.078015	0.600702
	H79	H	0.900686	0.906277	0.377500
	H80	H	0.602267	0.086916	0.898195
	H81	H	0.377297	0.079888	0.085790
	H82	H	0.600293	0.906336	0.077412
	H83	H	0.377266	0.907909	0.893255
	H84	H	0.601624	0.902724	0.080983
	H85	H	0.377329	0.091182	0.076580
	H86	H	0.598775	0.082459	0.904554
	H87	H	0.375343	0.896920	0.900677
	H88	H	0.903781	0.081873	0.598931
	H89	H	0.073045	0.075321	0.379976
	H90	H	0.074234	0.911210	0.597880
	H91	H	0.900336	0.902118	0.376289
	H92	H	0.081873	0.605615	0.898288
	H93	H	0.077970	0.383658	0.071355
	H94	H	0.905262	0.606056	0.083401
	H95	H	0.901578	0.381654	0.901235
	H96	H	0.401883	0.105882	0.577860
	H97	H	0.582115	0.882035	0.574444
	H98	H	0.576543	0.106161	0.398693
	H99	H	0.398772	0.882344	0.401030
	H100	H	0.581336	0.409840	0.099675
	H101	H	0.579268	0.579236	0.876982
	H102	H	0.399500	0.581940	0.102669
	H103	H	0.400853	0.408071	0.878936
	H104	H	0.103916	0.586244	0.394606
	H105	H	0.878056	0.586124	0.580884
	H106	H	0.099971	0.400613	0.571414
	H107	H	0.877955	0.407185	0.395252
	H108	H	0.902154	0.602236	0.071225
	H109	H	0.083869	0.378908	0.078004
	H110	H	0.077111	0.603127	0.900349
	H111	H	0.898761	0.379131	0.900433
	H112	H	0.075701	0.898015	0.603104
	H113	H	0.074215	0.087146	0.376202
	H114	H	0.898145	0.085761	0.602523
	H115	H	0.897502	0.904850	0.375498
	H116	H	0.600195	0.077991	0.897330
	H117	H	0.382529	0.078481	0.072807
	H118	H	0.600513	0.901335	0.075405
	H119	H	0.380584	0.907456	0.906435
	C120	C	0.368477	0.002455	0.609623
	C121	C	0.610988	0.984923	0.610366
	C122	C	0.610721	0.002250	0.368532
	C123	C	0.368223	0.986243	0.367636
	C124	C	0.610984	0.372809	-0.003177
	C125	C	0.611219	0.614613	0.979450
	C126	C	0.368563	0.613476	-0.001526
	C127	C	0.369472	0.372113	0.981246
	C128	C	-0.001745	0.615139	0.367532
	C129	C	0.982094	0.615523	0.610912
	C130	C	-0.002306	0.371557	0.609494
	C131	C	0.981027	0.371636	0.367089
	C132	C	0.867875	0.501924	0.110286
	C133	C	0.111349	0.484411	0.110113
	C134	C	0.112372	0.501066	0.867669
	C135	C	0.869691	0.484172	0.868274
	C136	C	0.111516	0.872581	0.497878
	C137	C	0.109631	0.113950	0.480237
	C138	C	0.867169	0.114712	0.497196
	C139	C	0.868825	0.872982	0.480694
	C140	C	0.497926	0.115107	0.867604
	C141	C	0.481929	0.115374	0.110543
	C142	C	0.497756	0.871794	0.110676
	C143	C	0.480015	0.871472	0.867011
	C144	C	0.366768	0.884347	0.669451
	C145	C	0.612972	0.102931	0.670845
	C146	C	0.611004	0.883542	0.309501
	C147	C	0.366209	0.104349	0.307564
	C148	C	0.669965	0.371144	0.878037
	C149	C	0.670434	0.617184	0.097624
	C150	C	0.309619	0.615159	0.879646
	C151	C	0.308425	0.368504	0.098847
	C152	C	0.881108	0.674892	0.366086
	C153	C	0.099802	0.673867	0.611514
	C154	C	0.880486	0.311564	0.612975
	C155	C	0.097829	0.310605	0.364293
	C156	C	0.880946	0.369827	0.670912
	C157	C	0.099598	0.615647	0.669347
	C158	C	0.881060	0.616879	0.308048
	C159	C	0.098015	0.368608	0.306210
	C160	C	0.368101	0.671867	0.878940
	C161	C	0.611619	0.673680	0.098064
	C162	C	0.611899	0.313819	0.877813
	C163	C	0.367278	0.312112	0.099615
	C164	C	0.668920	0.883537	0.366869
	C165	C	0.671777	0.102288	0.614251
	C166	C	0.307998	0.885083	0.612797
	C167	C	0.307094	0.103520	0.364098
	C168	C	0.866335	0.383670	0.170092
	C169	C	0.113077	0.602442	0.170135
	C170	C	0.115118	0.383655	0.806197
	C171	C	0.869561	0.603162	0.810073
	C172	C	0.172472	0.868999	0.380079
	C173	C	0.171069	0.118754	0.597348
	C174	C	0.806240	0.118270	0.379628
	C175	C	0.809812	0.871626	0.599553
	C176	C	0.381189	0.176210	0.864947
	C177	C	0.599519	0.174759	0.112329
	C178	C	0.380551	0.812339	0.113032
	C179	C	0.596157	0.809510	0.862419
	C180	C	0.380752	0.870510	0.171150
	C181	C	0.599422	0.117085	0.170404
	C182	C	0.381220	0.118525	0.806656
	C183	C	0.596736	0.868385	0.805410
	C184	C	0.864432	0.175227	0.379237
	C185	C	0.112383	0.175411	0.597946
	C186	C	0.113852	0.812256	0.379643
	C187	C	0.868645	0.815012	0.600105
	C188	C	0.173163	0.383771	0.863821
	C189	C	0.172603	0.601446	0.114308
	C190	C	0.806878	0.384649	0.114271
	C191	C	0.811386	0.602914	0.867090
	C192	C	0.393653	0.084691	0.584122
	C193	C	0.585589	0.903285	0.584481
	C194	C	0.586172	0.084879	0.393798
	C195	C	0.393659	0.904356	0.393379
	C196	C	0.586512	0.397478	0.079739
	C197	C	0.586833	0.589287	0.896881
	C198	C	0.393118	0.588954	0.080789
	C199	C	0.395158	0.398007	0.899213
	C200	C	0.079945	0.590414	0.392396
	C201	C	0.899862	0.591642	0.586812
	C202	C	0.079017	0.396622	0.583458
	C203	C	0.899496	0.397212	0.392620
	C204	C	0.893031	0.583820	0.084933
	C205	C	0.086088	0.402475	0.083924
	C206	C	0.087320	0.583025	0.893465
	C207	C	0.893459	0.401933	0.892686
	C208	C	0.086233	0.897976	0.580076
	C209	C	0.084229	0.087830	0.398464
	C210	C	0.892742	0.089179	0.579334
	C211	C	0.892654	0.897332	0.397933
	C212	C	0.579304	0.089564	0.892662
	C213	C	0.400375	0.090440	0.085523
	C214	C	0.579493	0.896485	0.085179
	C215	C	0.399003	0.896908	0.892857
	Zn216	Zn	0.489192	-0.006275	0.738473
	Zn217	Zn	0.489935	-0.005632	0.239412
	Zn218	Zn	0.739898	0.493409	-0.011349
	Zn219	Zn	0.240350	0.492290	-0.010400
	Zn220	Zn	-0.009873	0.744612	0.489452
	Zn221	Zn	-0.011214	0.242214	0.488396
	Zn222	Zn	-0.009439	0.492656	0.739480
	Zn223	Zn	-0.010199	0.493278	0.238088
	Zn224	Zn	0.489115	0.742338	-0.011167
	Zn225	Zn	0.490126	0.244022	-0.010750
	Zn226	Zn	0.739303	-0.006638	0.488890
	Zn227	Zn	0.239583	-0.005872	0.488583
	N228	N	0.403644	0.958518	0.667470
	N229	N	0.575881	0.028931	0.668717
	N230	N	0.575767	0.958584	0.310134
	N231	N	0.403501	0.030284	0.309607
	N232	N	0.669787	0.406873	0.953162
	N233	N	0.670326	0.581098	0.022798
	N234	N	0.309442	0.580048	0.954977
	N235	N	0.309819	0.405194	0.024204
	N236	N	0.955131	0.674009	0.402376
	N237	N	0.025592	0.673825	0.575846
	N238	N	0.954069	0.312557	0.575480
	N239	N	0.024045	0.312260	0.401252
	N240	N	0.954822	0.406443	0.668850
	N241	N	0.025388	0.580144	0.669241
	N242	N	0.954906	0.580312	0.308880
	N243	N	0.024327	0.405908	0.307891
	N244	N	0.403950	0.671313	0.953850
	N245	N	0.575590	0.672251	0.023389
	N246	N	0.576251	0.314395	0.953093
	N247	N	0.404507	0.314154	0.025404
	N248	N	0.669011	0.958523	0.402604
	N249	N	0.670817	0.027846	0.577455
	N250	N	0.308752	0.959757	0.576476
	N251	N	0.308007	0.028879	0.400477
	N252	N	0.903356	0.457756	0.167969
	N253	N	0.075999	0.528541	0.167822
	N254	N	0.078119	0.457740	0.808228
	N255	N	0.905143	0.528516	0.810551
	N256	N	0.171223	0.905705	0.454611
	N257	N	0.169414	0.081114	0.523176
	N258	N	0.807742	0.081333	0.454114
	N259	N	0.809631	0.906893	0.524331
	N260	N	0.454985	0.174534	0.901794
	N261	N	0.525434	0.173987	0.076061
	N262	N	0.454564	0.812785	0.076209
	N263	N	0.522834	0.811380	0.900154
	N264	N	0.454834	0.906592	0.169826
	N265	N	0.525206	0.080977	0.169595
	N266	N	0.454804	0.081270	0.808058
	N267	N	0.523495	0.906383	0.807813
	N268	N	0.901567	0.173169	0.453431
	N269	N	0.074917	0.172575	0.524016
	N270	N	0.076874	0.813988	0.454085
	N271	N	0.904358	0.815446	0.525150
	N272	N	0.171662	0.457842	0.901105
	N273	N	0.171742	0.526917	0.077684
	N274	N	0.807444	0.459272	0.077811
	N275	N	0.810860	0.527819	0.902295
	O276	O	0.122351	1.090105	-0.055880
	H277	H	0.117896	1.089959	-0.054741
	H278	H	0.135915	1.072975	-0.047986
	O279	O	0.669561	0.463769	0.301841
	H280	H	0.653784	0.448400	0.310063
	H281	H	0.696308	0.468106	0.279638
	O282	O	1.212931	-0.229502	0.954373
	H283	H	1.211822	-0.244320	0.957911
	H284	H	1.218729	-0.243817	0.945361
	O285	O	0.354668	0.606866	0.580741
	H286	H	0.361106	0.592057	0.577859
	H287	H	0.365821	0.589838	0.574999
	O288	O	0.446595	0.460910	0.385166
	H289	H	0.447846	0.445035	0.383184
	H290	H	0.454061	0.468944	0.405118
	O291	O	0.274251	0.467161	0.701897
	H292	H	0.260629	0.458715	0.722854
	H293	H	0.292492	0.465525	0.710142
	O294	O	0.790424	-0.013027	0.943527
	H295	H	0.798921	-0.017112	0.949766
	H296	H	0.790277	-0.008488	0.958584
	O297	O	0.514299	0.697662	0.692309
	H298	H	0.530426	0.696505	0.683651
	H299	H	0.526050	0.708434	0.702515
	O300	O	-0.210172	0.192484	0.787864
	H301	H	-0.156108	0.201042	0.781723
	H302	H	-0.217523	0.144249	0.787806
	O303	O	0.461537	0.280002	0.702187
	H304	H	0.464518	0.279916	0.695413
	H305	H	0.461369	0.265481	0.722900
	O306	O	0.808523	-0.177564	0.798672
	H307	H	0.841227	-0.163928	0.807132
	H308	H	0.807409	-0.168335	0.833031
	O309	O	0.628944	0.484740	0.551695
	H310	H	0.636501	0.470149	0.552856
	H311	H	0.629263	0.461863	0.559512
	O312	O	0.453577	0.706437	0.277327
	H313	H	0.434707	0.707111	0.266467
	H314	H	0.446290	0.721797	0.266314
	O315	O	0.401233	1.554226	0.701328
	H316	H	0.415489	1.565926	0.687379
	H317	H	0.428587	1.526408	0.703686
	O318	O	0.391054	0.707573	0.571982
	H319	H	0.409976	0.709466	0.563472
	H320	H	0.407763	0.692692	0.565102
	O321	O	0.203699	0.781255	0.779722
	H322	H	0.233847	0.749115	0.749220
	H323	H	0.202309	0.794891	0.803851
	O324	O	0.770631	1.027007	-0.225621
	H325	H	0.767850	1.005719	-0.216164
	H326	H	0.749789	1.020147	-0.234688
	O327	O	-0.235398	-0.222580	1.014092
	H328	H	-0.246284	-0.237020	1.040908
	H329	H	-0.235345	-0.227250	1.018269
	O330	O	0.447086	0.402818	0.335250
	H331	H	0.454105	0.407917	0.330909
	H332	H	0.415731	0.399129	0.332602
	O333	O	0.041371	0.224697	0.928844
	H334	H	0.072680	0.227093	0.918805
	H335	H	0.048419	0.219592	0.914655
	O336	O	0.693505	0.306084	0.291445
	H337	H	0.699368	0.297475	0.325538
	H338	H	0.678964	0.311361	0.284581
	O339	O	1.136509	0.142843	0.790997
	H340	H	1.153873	0.141281	0.774456
	H341	H	1.152696	0.123092	0.791721
	O342	O	-0.046603	-0.210196	0.010744
	H343	H	-0.071897	-0.220169	0.021376
	H344	H	-0.040877	-0.191169	0.032327
	O345	O	0.104766	0.861228	1.169413
	H346	H	0.087200	0.864272	1.171334
	H347	H	0.102999	0.877056	1.162576
	O348	O	0.585118	0.569055	0.435635
	H349	H	0.589249	0.567115	0.436217
	H350	H	0.590632	0.543732	0.437274
	O351	O	0.964154	0.778206	0.205480
	H352	H	0.969168	0.780242	0.215990
	H353	H	0.959642	0.765444	0.216215
	O354	O	0.017176	0.205991	1.206825
	H355	H	0.003462	0.201727	1.195419
	H356	H	0.027079	0.230794	1.228143
	O357	O	0.754165	0.760679	0.220865
	H358	H	0.748316	0.740051	0.236339
	H359	H	0.755233	0.750708	0.224206
	O360	O	0.278216	0.286712	0.516640
	H361	H	0.267375	0.272777	0.498911
	H362	H	0.275499	0.297630	0.512270
	O363	O	-0.161745	0.155676	-0.052235
	H364	H	-0.181174	0.170287	-0.053885
	H365	H	-0.165824	0.151289	-0.071618
	O366	O	0.408184	0.486665	0.556508
	H367	H	0.410660	0.499036	0.573847
	H368	H	0.412777	0.494102	0.554792
	O369	O	0.909206	-0.025699	-0.186960
	H370	H	0.900277	-0.026509	-0.187967
	H371	H	0.904694	-0.020558	-0.179328
	O372	O	1.204548	1.022579	0.205799
	H373	H	1.200022	1.015697	0.201638
	H374	H	1.218484	1.037277	0.223574
	O375	O	0.791721	0.126015	0.141989
	H376	H	0.792171	0.135009	0.136534
	H377	H	0.806552	0.140935	0.118842
	O378	O	0.539907	0.528754	0.636132
	H379	H	0.544755	0.540798	0.636696
	H380	H	0.536129	0.539955	0.630170
	O381	O	0.018017	0.943352	0.885857
	H382	H	0.025623	0.925923	0.884829
	H383	H	0.006843	0.954800	0.908091
	O384	O	1.224969	-0.009527	1.007869
	H385	H	1.220320	-0.024971	1.008122
	H386	H	1.224326	-0.020983	1.006707
	O387	O	0.885932	1.094090	-0.057429
	H388	H	0.878021	1.099297	-0.067140
	H389	H	0.889168	1.105713	-0.066018
	O390	O	0.692667	0.286193	0.453280
	H391	H	0.717261	0.260184	0.460007
	H392	H	0.659819	0.289904	0.469432
	O393	O	0.544433	0.307923	0.585941
	H394	H	0.537612	0.309886	0.583713
	H395	H	0.536650	0.308094	0.582955
	O396	O	0.273119	1.704207	1.451784
	H397	H	0.284091	1.713814	1.462005
	H398	H	0.263296	1.721006	1.458095
	O399	O	0.010260	-0.174118	0.869317
	H400	H	0.027246	-0.175064	0.873202
	H401	H	0.018919	-0.186272	0.880624
	O402	O	0.550154	0.560146	0.278676
	H403	H	0.562174	0.557330	0.275638
	H404	H	0.527103	0.547082	0.282597
	O405	O	0.897599	0.138138	1.110107
	H406	H	0.873885	0.145129	1.084199
	H407	H	0.916284	0.156819	1.101953
	O408	O	-0.153413	-0.118121	0.149370
	H409	H	-0.154671	-0.122620	0.159334
	H410	H	-0.172619	-0.108659	0.166103
	O411	O	0.712809	0.527391	0.706465
	H412	H	0.709281	0.566317	0.707610
	H413	H	0.734706	0.524384	0.724441
	O414	O	0.869191	-0.032860	1.032706
	H415	H	0.866772	-0.029179	1.049810
	H416	H	0.867386	-0.014969	1.030333
	O417	O	0.353786	0.535787	0.462147
	H418	H	0.342836	0.534339	0.464675
	H419	H	0.353610	0.540535	0.462949
	O420	O	0.620078	0.714776	0.542774
	H421	H	0.637627	0.722259	0.552822
	H422	H	0.631038	0.709605	0.538775
	O423	O	0.186748	0.196668	1.187995
	H424	H	0.158995	0.188557	1.181007
	H425	H	0.193247	0.182748	1.161390
	O426	O	0.329388	0.304562	0.334764
	H427	H	0.322508	0.291100	0.302560
	H428	H	0.330540	0.327948	0.347208
	O429	O	0.771507	0.983519	1.174370
	H430	H	0.769287	0.970904	1.168869
	H431	H	0.749969	0.989447	1.184701
	O432	O	0.436779	0.343290	0.448667
	H433	H	0.430848	0.333948	0.444585
	H434	H	0.426879	0.352592	0.434817
	O435	O	0.185104	0.855521	0.114400
	H436	H	0.181062	0.849662	0.097816
	H437	H	0.168484	0.864637	0.122731
	O438	O	0.203774	0.202109	0.026235
	H439	H	0.213700	0.185834	0.016206
	H440	H	0.215105	0.207660	0.015722
	O441	O	0.270042	0.479401	0.354132
	H442	H	0.258627	0.497132	0.335753
	H443	H	0.265319	0.500827	0.361248
	O444	O	0.285314	0.694022	0.283831
	H445	H	0.278618	0.702362	0.266144
	H446	H	0.274235	0.693647	0.320847
	O447	O	0.148723	0.997886	0.769098
	H448	H	0.139061	0.983646	0.770828
	H449	H	0.171491	0.988535	0.750064
	O450	O	-0.027318	1.012101	1.218386
	H451	H	-0.034981	1.022667	1.213921
	H452	H	-0.048672	1.028143	1.218266
	O453	O	0.672005	0.371821	0.598902
	H454	H	0.689156	0.358279	0.615652
	H455	H	0.665504	0.363704	0.588192
	O456	O	-0.045543	0.207519	0.775215
	H457	H	-0.029931	0.204530	0.758698
	H458	H	-0.022308	0.206697	0.772189
	O459	O	0.996444	1.130491	0.086307
	H460	H	1.001715	1.130019	0.079915
	H461	H	0.994439	1.141343	0.091973
	O462	O	0.548584	0.709207	0.426917
	H463	H	0.565118	0.694466	0.421426
	H464	H	0.536690	0.713501	0.410707
	O465	O	0.690364	-0.305264	-0.302722
	H466	H	0.679201	-0.308728	-0.327135
	H467	H	0.720472	-0.270652	-0.278377
	O468	O	0.700640	0.596260	0.383840
	H469	H	0.702678	0.578064	0.389458
	H470	H	0.681945	0.583152	0.387637
	O471	O	0.289034	0.285007	0.687183
	H472	H	0.280544	0.290505	0.645989
	H473	H	0.316524	0.307481	0.693493
	O474	O	0.348481	0.433489	0.396452
	H475	H	0.349872	0.427276	0.394140
	H476	H	0.352601	0.438025	0.398392
	O477	O	0.527272	0.282036	1.273634
	H478	H	0.537126	0.263332	1.255785
	H479	H	0.521699	0.286681	1.276169
	O480	O	0.670980	0.534835	0.510187
	H481	H	0.669639	0.519835	0.489678
	H482	H	0.683701	0.550024	0.507159
	O483	O	1.003220	0.763686	0.814848
	H484	H	1.003037	0.750257	0.810097
	H485	H	1.022944	0.762957	0.801876
	O486	O	1.119616	-0.111987	0.896703
	H487	H	1.123665	-0.121917	0.890414
	H488	H	1.115811	-0.115483	0.889266
	O489	O	1.071873	1.009326	-0.078159
	H490	H	1.080661	0.999123	-0.078512
	H491	H	1.058927	1.016078	-0.082934
