data_Molecule from HDF5

_cell_length_a		16.178301
_cell_length_b		16.146711
_cell_length_c		16.206518
_cell_angle_alpha	90.615453
_cell_angle_beta	89.735088
_cell_angle_gamma	89.491831
_symmetry_space_group_name_H-M	'P 1'
_symmetry_Int_Tables_number		1

loop_
	_symmetry_equiv_pos_as_xyz
	x,y,z

loop_
	_atom_site_label
	_atom_site_type_symbol
	_atom_site_fract_x
	_atom_site_fract_y
	_atom_site_fract_z
	H0	H	0.412816	0.836669	0.709849
	H1	H	0.607668	0.167002	0.715862
	H2	H	0.613332	0.838595	0.282565
	H3	H	0.410096	0.167370	0.285301
	H4	H	0.729391	0.395842	0.834754
	H5	H	0.722455	0.600664	0.162146
	H6	H	0.295929	0.602095	0.833439
	H7	H	0.296096	0.407203	0.162093
	H8	H	0.845620	0.718710	0.399993
	H9	H	0.175068	0.718477	0.597082
	H10	H	0.844829	0.295871	0.593118
	H11	H	0.173616	0.285868	0.393946
	H12	H	0.847110	0.406187	0.713008
	H13	H	0.174204	0.605301	0.712719
	H14	H	0.845261	0.602682	0.284689
	H15	H	0.175225	0.402320	0.281215
	H16	H	0.411896	0.715125	0.832888
	H17	H	0.608013	0.717275	0.161574
	H18	H	0.610952	0.283856	0.834066
	H19	H	0.412126	0.292773	0.162981
	H20	H	0.729945	0.840355	0.395368
	H21	H	0.719831	0.169925	0.597922
	H22	H	0.296890	0.837854	0.595448
	H23	H	0.297098	0.168765	0.402783
	H24	H	0.914212	0.338298	0.208813
	H25	H	0.107589	0.667723	0.212945
	H26	H	0.113933	0.340407	0.778661
	H27	H	0.908687	0.668834	0.785712
	H28	H	0.227804	0.901183	0.333930
	H29	H	0.222080	0.104842	0.663258
	H30	H	0.794846	0.103710	0.333493
	H31	H	0.796186	0.909945	0.661844
	H32	H	0.346118	0.215698	0.902350
	H33	H	0.675143	0.215631	0.098036
	H34	H	0.345481	0.793177	0.093772
	H35	H	0.675786	0.785595	0.896100
	H36	H	0.346896	0.904268	0.213115
	H37	H	0.675325	0.100012	0.212469
	H38	H	0.345810	0.100951	0.786636
	H39	H	0.674519	0.898425	0.779532
	H40	H	0.912039	0.215925	0.331619
	H41	H	0.107958	0.222178	0.660676
	H42	H	0.110872	0.786608	0.333463
	H43	H	0.909389	0.792227	0.661742
	H44	H	0.227227	0.339111	0.895621
	H45	H	0.221239	0.668898	0.097917
	H46	H	0.800170	0.336725	0.094208
	H47	H	0.792299	0.666608	0.900218
	H48	H	0.417064	0.118628	0.586002
	H49	H	0.605643	0.883082	0.595455
	H50	H	0.596669	0.121028	0.404343
	H51	H	0.425103	0.883251	0.393601
	H52	H	0.602014	0.401889	0.117939
	H53	H	0.605498	0.599356	0.876721
	H54	H	0.415661	0.592784	0.113184
	H55	H	0.416439	0.409849	0.880645
	H56	H	0.125596	0.585681	0.404941
	H57	H	0.896198	0.594527	0.587504
	H58	H	0.127922	0.409467	0.582469
	H59	H	0.891593	0.409222	0.405612
	H60	H	0.127993	0.416679	0.588724
	H61	H	0.890825	0.596183	0.597043
	H62	H	0.130928	0.597218	0.395960
	H63	H	0.893015	0.414432	0.400352
	H64	H	0.420565	0.602385	0.115319
	H65	H	0.608524	0.585644	0.880200
	H66	H	0.612099	0.411634	0.117206
	H67	H	0.421406	0.408678	0.880950
	H68	H	0.603918	0.121161	0.410052
	H69	H	0.598139	0.887322	0.585461
	H70	H	0.408624	0.124160	0.596787
	H71	H	0.425418	0.889880	0.415423
	H72	H	0.915645	0.620236	0.086756
	H73	H	0.107173	0.382147	0.097061
	H74	H	0.104706	0.621052	0.909747
	H75	H	0.926952	0.386445	0.899503
	H76	H	0.098398	0.908565	0.615682
	H77	H	0.100041	0.101165	0.378673
	H78	H	0.920043	0.098762	0.612852
	H79	H	0.919776	0.906369	0.378592
	H80	H	0.630715	0.097734	0.906248
	H81	H	0.396414	0.090069	0.085334
	H82	H	0.628642	0.908343	0.086365
	H83	H	0.395178	0.913887	0.906812
	H84	H	0.629321	0.911737	0.092424
	H85	H	0.390161	0.093393	0.103254
	H86	H	0.625369	0.088632	0.910689
	H87	H	0.391245	0.910622	0.898752
	H88	H	0.915498	0.106848	0.616294
	H89	H	0.114073	0.093411	0.378090
	H90	H	0.108801	0.911254	0.616510
	H91	H	0.916126	0.914011	0.379471
	H92	H	0.104804	0.624607	0.902063
	H93	H	0.097039	0.387795	0.086562
	H94	H	0.910644	0.623264	0.094291
	H95	H	0.920796	0.387114	0.909602
	H96	H	0.421691	0.120544	0.599607
	H97	H	0.611154	0.885498	0.583231
	H98	H	0.604208	0.123803	0.402225
	H99	H	0.407206	0.881320	0.405757
	H100	H	0.599115	0.414380	0.112832
	H101	H	0.595205	0.590504	0.881982
	H102	H	0.409600	0.601182	0.116975
	H103	H	0.418185	0.405704	0.878197
	H104	H	0.126591	0.599632	0.411386
	H105	H	0.891798	0.604561	0.589609
	H106	H	0.129318	0.408292	0.590941
	H107	H	0.890364	0.407915	0.398353
	H108	H	0.919381	0.621276	0.095684
	H109	H	0.111871	0.384457	0.082478
	H110	H	0.098523	0.620890	0.905549
	H111	H	0.916552	0.383638	0.900302
	H112	H	0.101816	0.917693	0.613473
	H113	H	0.100365	0.087078	0.383141
	H114	H	0.910177	0.098281	0.616329
	H115	H	0.923677	0.913041	0.381884
	H116	H	0.629537	0.088525	0.899278
	H117	H	0.389768	0.107567	0.091625
	H118	H	0.630987	0.904792	0.091409
	H119	H	0.392179	0.904234	0.905853
	C120	C	0.388299	0.011428	0.620697
	C121	C	0.631959	0.994709	0.618497
	C122	C	0.632561	0.012980	0.375788
	C123	C	0.389622	0.994001	0.377242
	C124	C	0.633469	0.378707	0.007202
	C125	C	0.630906	0.621849	0.988609
	C126	C	0.387614	0.625832	0.006173
	C127	C	0.389680	0.381451	0.988892
	C128	C	0.019102	0.624232	0.375991
	C129	C	1.001592	0.627252	0.619962
	C130	C	0.019659	0.383630	0.617185
	C131	C	1.000849	0.381067	0.372864
	C132	C	0.888746	0.511708	0.118844
	C133	C	0.132170	0.494346	0.118254
	C134	C	0.133094	0.512924	0.875490
	C135	C	0.889880	0.494230	0.875846
	C136	C	0.132383	0.881806	0.506586
	C137	C	0.132124	0.125236	0.488840
	C138	C	0.887463	0.127905	0.505950
	C139	C	0.889770	0.883971	0.488677
	C140	C	0.519608	0.122063	0.877653
	C141	C	0.501457	0.124860	0.121398
	C142	C	0.520363	0.880998	0.118642
	C143	C	0.501777	0.879063	0.874267
	C144	C	0.391604	0.886613	0.673531
	C145	C	0.628099	0.118330	0.676556
	C146	C	0.632764	0.888303	0.320067
	C147	C	0.390916	0.118311	0.323269
	C148	C	0.690726	0.377166	0.883672
	C149	C	0.684814	0.620459	0.112970
	C150	C	0.333448	0.622496	0.882408
	C151	C	0.334297	0.386318	0.112969
	C152	C	0.894896	0.680613	0.379118
	C153	C	0.125658	0.681713	0.617336
	C154	C	0.894755	0.331412	0.614555
	C155	C	0.124892	0.324793	0.374695
	C156	C	0.895978	0.386731	0.673875
	C157	C	0.125239	0.625665	0.675345
	C158	C	0.894690	0.622892	0.321893
	C159	C	0.125393	0.382304	0.318161
	C160	C	0.391145	0.678871	0.882211
	C161	C	0.627902	0.678510	0.112643
	C162	C	0.631426	0.321856	0.883156
	C163	C	0.392198	0.329440	0.113331
	C164	C	0.690578	0.889165	0.376613
	C165	C	0.684148	0.119742	0.617962
	C166	C	0.333855	0.887221	0.616745
	C167	C	0.334376	0.118873	0.381329
	C168	C	0.893319	0.387325	0.171769
	C169	C	0.128406	0.618661	0.174748
	C170	C	0.133027	0.389373	0.817604
	C171	C	0.889672	0.619117	0.822921
	C172	C	0.189217	0.881768	0.382909
	C173	C	0.185101	0.124397	0.613519
	C174	C	0.832740	0.123978	0.382213
	C175	C	0.833547	0.888205	0.612606
	C176	C	0.395303	0.177846	0.881446
	C177	C	0.625652	0.178601	0.118480
	C178	C	0.395244	0.828884	0.115293
	C179	C	0.625919	0.822961	0.875656
	C180	C	0.395987	0.884168	0.174543
	C181	C	0.625907	0.120666	0.175050
	C182	C	0.395256	0.120767	0.823888
	C183	C	0.625374	0.878990	0.817635
	C184	C	0.890945	0.180001	0.381304
	C185	C	0.128218	0.182791	0.611979
	C186	C	0.131033	0.824968	0.382514
	C187	C	0.889966	0.829835	0.612596
	C188	C	0.189506	0.388716	0.875865
	C189	C	0.184522	0.619338	0.117054
	C190	C	0.836756	0.386511	0.114690
	C191	C	0.831712	0.618030	0.879707
	C192	C	0.409413	0.098423	0.600271
	C193	C	0.611164	0.907567	0.594871
	C194	C	0.608598	0.099769	0.398677
	C195	C	0.412427	0.907267	0.398569
	C196	C	0.611238	0.402528	0.093534
	C197	C	0.609569	0.598693	0.902122
	C198	C	0.408946	0.605034	0.092959
	C199	C	0.412013	0.402003	0.902259
	C200	C	0.105569	0.601049	0.397590
	C201	C	0.915250	0.604903	0.598003
	C202	C	0.106280	0.405069	0.594137
	C203	C	0.914193	0.403763	0.394894
	C204	C	0.908915	0.599015	0.098348
	C205	C	0.111706	0.407303	0.095285
	C206	C	0.109615	0.599654	0.898863
	C207	C	0.914185	0.407992	0.896935
	C208	C	0.109618	0.905415	0.592827
	C209	C	0.111131	0.100935	0.402370
	C210	C	0.909007	0.107416	0.592628
	C211	C	0.912988	0.905065	0.402405
	C212	C	0.606162	0.098590	0.899122
	C213	C	0.414592	0.103308	0.099894
	C214	C	0.606976	0.902113	0.096756
	C215	C	0.415300	0.902568	0.897126
	Zn216	Zn	0.510488	0.001631	0.747604
	Zn217	Zn	0.510959	0.002240	0.248204
	Zn218	Zn	0.760799	0.500820	-0.002182
	Zn219	Zn	0.260820	0.503840	-0.002526
	Zn220	Zn	0.010395	0.753555	0.497968
	Zn221	Zn	0.009458	0.254547	0.495430
	Zn222	Zn	0.011530	0.505238	0.746902
	Zn223	Zn	0.010642	0.503335	0.246179
	Zn224	Zn	0.510515	0.752516	-0.003157
	Zn225	Zn	0.511081	0.251379	-0.001787
	Zn226	Zn	0.760135	0.005530	0.497085
	Zn227	Zn	0.260903	0.003506	0.498689
	N228	N	0.424727	0.964740	0.676023
	N229	N	0.596306	0.039443	0.676848
	N230	N	0.597181	0.966080	0.319699
	N231	N	0.424651	0.039640	0.320455
	N232	N	0.692089	0.411865	0.961642
	N233	N	0.686923	0.585785	0.034933
	N234	N	0.331182	0.590100	0.960483
	N235	N	0.332721	0.418236	0.034625
	N236	N	0.973085	0.681592	0.412170
	N237	N	0.047707	0.683094	0.583859
	N238	N	0.972693	0.329439	0.579700
	N239	N	0.046405	0.323573	0.407872
	N240	N	0.974819	0.418190	0.675823
	N241	N	0.047145	0.592669	0.677145
	N242	N	0.972944	0.588617	0.319786
	N243	N	0.047425	0.416789	0.317114
	N244	N	0.424154	0.681092	0.960348
	N245	N	0.595287	0.679630	0.034216
	N246	N	0.596480	0.322680	0.960820
	N247	N	0.425976	0.326051	0.035179
	N248	N	0.690461	0.967822	0.410467
	N249	N	0.686521	0.041747	0.582681
	N250	N	0.331579	0.965884	0.584614
	N251	N	0.333514	0.040617	0.414263
	N252	N	0.924972	0.466096	0.174614
	N253	N	0.096444	0.540094	0.175556
	N254	N	0.098876	0.467806	0.817140
	N255	N	0.925438	0.541330	0.820454
	N256	N	0.190168	0.916435	0.460927
	N257	N	0.187697	0.089275	0.535839
	N258	N	0.830402	0.092489	0.460680
	N259	N	0.833170	0.921029	0.534597
	N260	N	0.473663	0.178662	0.914159
	N261	N	0.547221	0.181222	0.085843
	N262	N	0.473314	0.826850	0.081223
	N263	N	0.548036	0.822821	0.910256
	N264	N	0.474671	0.915822	0.176764
	N265	N	0.547469	0.088189	0.177205
	N266	N	0.473606	0.086546	0.821469
	N267	N	0.547139	0.913249	0.816529
	N268	N	0.924416	0.182433	0.459161
	N269	N	0.095937	0.183319	0.533460
	N270	N	0.096575	0.824658	0.460552
	N271	N	0.924210	0.826918	0.534618
	N272	N	0.189622	0.466628	0.911278
	N273	N	0.187373	0.540947	0.082761
	N274	N	0.833903	0.464961	0.082292
	N275	N	0.831486	0.539363	0.911771
	O276	O	-0.039394	-0.013976	-0.103464
	H277	H	-0.036632	-0.014210	-0.116505
	H278	H	-0.035409	-0.018674	-0.095960
	O279	O	0.433394	0.563345	0.416896
	H280	H	0.426133	0.553714	0.418974
	H281	H	0.433721	0.572979	0.407002
	O282	O	0.521456	0.453998	0.462595
	H283	H	0.531262	0.455762	0.464733
	H284	H	0.525900	0.455261	0.456145
	O285	O	1.025861	0.079034	0.943065
	H286	H	1.021033	0.089084	0.943919
	H287	H	1.028206	0.080621	0.957874
	O288	O	0.961623	0.030809	-0.003123
	H289	H	0.967669	0.022220	-0.004765
	H290	H	0.966821	0.030010	0.002485
	O291	O	0.526844	0.541012	0.502450
	H292	H	0.534195	0.545476	0.499701
	H293	H	0.528655	0.537299	0.503035
	O294	O	0.989199	0.032238	0.992328
	H295	H	0.988588	0.033029	0.976475
	H296	H	0.995185	0.032115	0.998066
	O297	O	-0.012375	-0.014913	0.002413
	H298	H	-0.004058	-0.017409	0.011342
	H299	H	-0.029265	-0.022372	0.009966
	O300	O	0.462851	0.535100	0.422904
	H301	H	0.454738	0.537665	0.425063
	H302	H	0.460346	0.518366	0.425638
	O303	O	0.008171	0.022879	-0.069094
	H304	H	0.008360	0.029442	-0.071695
	H305	H	0.000036	0.019086	-0.075910
	O306	O	1.027947	-0.014829	0.033139
	H307	H	1.035858	-0.026863	0.023775
	H308	H	1.034096	-0.018483	0.025016
	O309	O	0.003718	0.037612	0.977120
	H310	H	0.010171	0.040961	0.967675
	H311	H	0.012621	0.037559	0.981332
	O312	O	1.032090	0.970772	0.985361
	H313	H	1.027998	0.972700	0.976921
	H314	H	1.028513	0.968358	0.982683
	O315	O	0.512001	0.491566	0.496284
	H316	H	0.516777	0.494999	0.492376
	H317	H	0.506685	0.485740	0.492728
	O318	O	0.541286	0.552280	0.611539
	H319	H	0.547118	0.561016	0.606488
	H320	H	0.542842	0.560169	0.603208
	O321	O	0.006858	0.986534	0.955773
	H322	H	0.011361	0.991568	0.959377
	H323	H	0.005625	0.994669	0.952449
	O324	O	0.550946	0.443811	0.486660
	H325	H	0.552958	0.443346	0.487343
	H326	H	0.551375	0.440560	0.486763
	O327	O	0.503966	0.500921	0.484607
	H328	H	0.503103	0.501374	0.490245
	H329	H	0.498207	0.506132	0.497118
	O330	O	0.523207	0.552794	0.588117
	H331	H	0.530045	0.533809	0.581729
	H332	H	0.527800	0.568459	0.599690
	O333	O	0.530410	0.495368	0.488059
	H334	H	0.522607	0.490020	0.487486
	H335	H	0.537593	0.491041	0.479527
	O336	O	0.496521	0.488654	0.529546
	H337	H	0.496163	0.490313	0.532147
	H338	H	0.503743	0.484623	0.529716
	O339	O	1.073033	1.053179	0.006914
	H340	H	1.068984	1.054716	0.005915
	H341	H	1.070225	1.060338	-0.002484
	O342	O	0.547361	0.537577	0.533573
	H343	H	0.542522	0.544433	0.530175
	H344	H	0.548248	0.537768	0.538787
	O345	O	0.512078	0.439252	0.507702
	H346	H	0.509597	0.443403	0.510397
	H347	H	0.516191	0.442078	0.512943
	O348	O	-0.006800	0.043459	0.063089
	H349	H	0.000246	0.040585	0.081840
	H350	H	-0.018647	0.046052	0.061895
	O351	O	-0.505598	1.516603	1.510537
	H352	H	-0.504442	1.513911	1.507291
	H353	H	-0.502599	1.510882	1.507527
	O354	O	0.491077	0.537777	0.504167
	H355	H	0.487296	0.538148	0.497234
	H356	H	0.479053	0.537676	0.500803
	O357	O	0.030179	0.975861	1.011034
	H358	H	0.039587	0.968754	1.013016
	H359	H	0.029060	0.983746	1.008934
