data_Molecule from HDF5

_cell_length_a		16.325603
_cell_length_b		16.138778
_cell_length_c		16.490373
_cell_angle_alpha	90.193125
_cell_angle_beta	90.120631
_cell_angle_gamma	89.915545
_symmetry_space_group_name_H-M	'P 1'
_symmetry_Int_Tables_number		1

loop_
	_symmetry_equiv_pos_as_xyz
	x,y,z

loop_
	_atom_site_label
	_atom_site_type_symbol
	_atom_site_fract_x
	_atom_site_fract_y
	_atom_site_fract_z
	H0	H	0.384086	0.848598	0.711463
	H1	H	0.597221	0.170241	0.711410
	H2	H	0.597333	0.849221	0.266403
	H3	H	0.385404	0.170764	0.272461
	H4	H	0.711073	0.401125	0.833496
	H5	H	0.711676	0.613521	0.150181
	H6	H	0.266092	0.613814	0.833482
	H7	H	0.268685	0.402780	0.150285
	H8	H	0.827844	0.723965	0.388768
	H9	H	0.151940	0.723690	0.590160
	H10	H	0.829203	0.289154	0.590574
	H11	H	0.151459	0.288736	0.388066
	H12	H	0.829493	0.400855	0.710177
	H13	H	0.147946	0.615861	0.713329
	H14	H	0.829313	0.612721	0.270374
	H15	H	0.147794	0.397334	0.266330
	H16	H	0.384554	0.728519	0.832078
	H17	H	0.591726	0.727623	0.151318
	H18	H	0.590405	0.290971	0.831309
	H19	H	0.388880	0.291147	0.151555
	H20	H	0.710013	0.846966	0.382720
	H21	H	0.709815	0.170793	0.592438
	H22	H	0.273784	0.845052	0.591666
	H23	H	0.270505	0.169459	0.386322
	H24	H	0.880934	0.347536	0.212848
	H25	H	0.095995	0.667884	0.212655
	H26	H	0.096015	0.347656	0.768342
	H27	H	0.883567	0.668802	0.772425
	H28	H	0.213800	0.898587	0.331443
	H29	H	0.213281	0.113768	0.647444
	H30	H	0.765138	0.117302	0.331791
	H31	H	0.767936	0.901604	0.646092
	H32	H	0.328317	0.226217	0.889675
	H33	H	0.652446	0.225694	0.091300
	H34	H	0.328621	0.791075	0.093593
	H35	H	0.650089	0.789498	0.889748
	H36	H	0.330646	0.903822	0.211244
	H37	H	0.647550	0.119916	0.215047
	H38	H	0.331734	0.118877	0.766934
	H39	H	0.648735	0.902023	0.770388
	H40	H	0.884549	0.230436	0.331762
	H41	H	0.094251	0.227563	0.648461
	H42	H	0.093675	0.786693	0.329860
	H43	H	0.889406	0.791292	0.649210
	H44	H	0.208487	0.345622	0.887555
	H45	H	0.207591	0.669463	0.095685
	H46	H	0.771672	0.345221	0.092788
	H47	H	0.772086	0.670324	0.890595
	H48	H	0.402457	0.125712	0.584759
	H49	H	0.574587	0.894232	0.581328
	H50	H	0.576409	0.125571	0.395210
	H51	H	0.403772	0.893184	0.401471
	H52	H	0.582308	0.426354	0.103665
	H53	H	0.575303	0.592944	0.881185
	H54	H	0.393551	0.598944	0.106472
	H55	H	0.392543	0.426305	0.878582
	H56	H	0.104161	0.599030	0.404312
	H57	H	0.870245	0.601800	0.590879
	H58	H	0.104294	0.416889	0.577633
	H59	H	0.880149	0.419858	0.412177
	H60	H	0.101945	0.425622	0.581526
	H61	H	0.873896	0.605280	0.575877
	H62	H	0.102093	0.590356	0.401082
	H63	H	0.877477	0.431782	0.394718
	H64	H	0.400440	0.594592	0.102780
	H65	H	0.578609	0.603776	0.877011
	H66	H	0.575183	0.415241	0.104696
	H67	H	0.406490	0.420670	0.880833
	H68	H	0.571931	0.120223	0.405598
	H69	H	0.580181	0.894193	0.576458
	H70	H	0.406718	0.121558	0.575733
	H71	H	0.400986	0.890955	0.398984
	H72	H	0.897746	0.625020	0.080956
	H73	H	0.080969	0.391458	0.075003
	H74	H	0.076848	0.624818	0.899400
	H75	H	0.901073	0.391521	0.899346
	H76	H	0.076663	0.922181	0.600115
	H77	H	0.077951	0.092001	0.378276
	H78	H	0.902122	0.097412	0.601850
	H79	H	0.895747	0.920714	0.374772
	H80	H	0.607121	0.107138	0.900470
	H81	H	0.378950	0.091053	0.078659
	H82	H	0.606886	0.920601	0.086250
	H83	H	0.378112	0.927501	0.904067
	H84	H	0.605011	0.914458	0.076954
	H85	H	0.372886	0.098767	0.090420
	H86	H	0.600711	0.093167	0.906361
	H87	H	0.373826	0.923255	0.893464
	H88	H	0.898127	0.096130	0.602315
	H89	H	0.077523	0.101122	0.375876
	H90	H	0.081546	0.909187	0.604804
	H91	H	0.904913	0.918389	0.376763
	H92	H	0.074922	0.622859	0.902724
	H93	H	0.079104	0.390044	0.084457
	H94	H	0.903538	0.623600	0.084048
	H95	H	0.900161	0.391634	0.899401
	H96	H	0.395671	0.124404	0.576125
	H97	H	0.581417	0.891340	0.582631
	H98	H	0.583427	0.125005	0.406019
	H99	H	0.404658	0.892787	0.397494
	H100	H	0.587590	0.415293	0.108659
	H101	H	0.585908	0.594337	0.876512
	H102	H	0.401395	0.602978	0.105508
	H103	H	0.395614	0.411788	0.874834
	H104	H	0.106028	0.596493	0.394820
	H105	H	0.877255	0.590049	0.581220
	H106	H	0.106039	0.419616	0.586032
	H107	H	0.870671	0.411199	0.394939
	H108	H	0.902848	0.621284	0.077461
	H109	H	0.071826	0.393966	0.078649
	H110	H	0.079111	0.623009	0.902668
	H111	H	0.900487	0.390656	0.899294
	H112	H	0.090810	0.920663	0.603896
	H113	H	0.085480	0.095589	0.374878
	H114	H	0.900914	0.093184	0.600904
	H115	H	0.898637	0.911820	0.373463
	H116	H	0.606499	0.093985	0.890837
	H117	H	0.374059	0.105737	0.077206
	H118	H	0.601489	0.925520	0.077323
	H119	H	0.373987	0.915579	0.903173
	C120	C	0.369997	0.017221	0.610461
	C121	C	0.611435	1.000265	0.611288
	C122	C	0.610805	0.017723	0.368359
	C123	C	0.370029	0.999528	0.368394
	C124	C	0.612169	0.386718	0.000218
	C125	C	0.611406	0.629342	0.983286
	C126	C	0.366530	0.630919	0.000146
	C127	C	0.367640	0.387197	0.983267
	C128	C	-0.001916	0.628194	0.368956
	C129	C	0.980512	0.630162	0.612674
	C130	C	-0.001737	0.387630	0.612022
	C131	C	0.981352	0.386749	0.368614
	C132	C	0.869381	0.516087	0.111685
	C133	C	0.109757	0.498500	0.111979
	C134	C	0.109876	0.516724	0.869616
	C135	C	0.868335	0.498470	0.869448
	C136	C	0.113630	0.884765	0.497744
	C137	C	0.112448	0.128570	0.481235
	C138	C	0.867861	0.129515	0.497738
	C139	C	0.868264	0.885903	0.480234
	C140	C	0.498741	0.130743	0.868403
	C141	C	0.481738	0.130437	0.112471
	C142	C	0.498582	0.888362	0.112142
	C143	C	0.480588	0.888126	0.868969
	C144	C	0.366646	0.896258	0.670787
	C145	C	0.614686	0.121956	0.671049
	C146	C	0.614842	0.897186	0.306719
	C147	C	0.367147	0.121741	0.310762
	C148	C	0.671048	0.383978	0.880632
	C149	C	0.671144	0.631736	0.102927
	C150	C	0.306401	0.632474	0.880897
	C151	C	0.308877	0.385427	0.102891
	C152	C	0.876621	0.686149	0.369084
	C153	C	0.102614	0.686510	0.610909
	C154	C	0.877344	0.328353	0.610782
	C155	C	0.102501	0.327062	0.368125
	C156	C	0.877511	0.383873	0.670414
	C157	C	0.100591	0.632864	0.672392
	C158	C	0.877308	0.630194	0.310344
	C159	C	0.100855	0.381508	0.307822
	C160	C	0.365552	0.689472	0.880076
	C161	C	0.611589	0.688510	0.103400
	C162	C	0.611005	0.328997	0.879553
	C163	C	0.368451	0.329219	0.103301
	C164	C	0.671093	0.896154	0.364610
	C165	C	0.670719	0.122281	0.611787
	C166	C	0.311664	0.894694	0.611249
	C167	C	0.309819	0.121060	0.367734
	C168	C	0.865130	0.395234	0.171979
	C169	C	0.113086	0.619760	0.172490
	C170	C	0.113381	0.395640	0.808986
	C171	C	0.865962	0.620611	0.811941
	C172	C	0.173171	0.881653	0.378540
	C173	C	0.172730	0.131532	0.600182
	C174	C	0.806538	0.133760	0.379050
	C175	C	0.808363	0.883755	0.599071
	C176	C	0.377279	0.188774	0.869191
	C177	C	0.602969	0.188613	0.111992
	C178	C	0.377101	0.830142	0.112696
	C179	C	0.601566	0.828472	0.869503
	C180	C	0.378296	0.886177	0.171507
	C181	C	0.601105	0.135324	0.173306
	C182	C	0.378899	0.135003	0.808095
	C183	C	0.600759	0.884490	0.810089
	C184	C	0.865797	0.190547	0.379054
	C185	C	0.113460	0.188389	0.600671
	C186	C	0.113652	0.825476	0.377891
	C187	C	0.868792	0.828591	0.600499
	C188	C	0.169541	0.394675	0.868153
	C189	C	0.168927	0.620583	0.114138
	C190	C	0.810367	0.394138	0.112245
	C191	C	0.810344	0.621181	0.870747
	C192	C	0.394621	0.101787	0.586094
	C193	C	0.586257	0.915377	0.587163
	C194	C	0.584771	0.101787	0.394479
	C195	C	0.395763	0.914383	0.392313
	C196	C	0.588581	0.411381	0.083845
	C197	C	0.587065	0.604202	0.900099
	C198	C	0.391383	0.606092	0.083132
	C199	C	0.391373	0.412147	0.899926
	C200	C	0.082205	0.602695	0.393121
	C201	C	0.895902	0.606035	0.589412
	C202	C	0.082176	0.413289	0.588563
	C203	C	0.897823	0.413135	0.393328
	C204	C	0.894357	0.601206	0.087698
	C205	C	0.084440	0.413958	0.086681
	C206	C	0.084383	0.601420	0.894364
	C207	C	0.893293	0.413292	0.892504
	C208	C	0.089741	0.909906	0.581089
	C209	C	0.087504	0.103299	0.398020
	C210	C	0.893203	0.103208	0.580254
	C211	C	0.892527	0.910091	0.396904
	C212	C	0.582955	0.105293	0.892342
	C213	C	0.397238	0.105533	0.088848
	C214	C	0.582346	0.913115	0.087407
	C215	C	0.397157	0.914347	0.893242
	Zn216	Zn	0.490039	0.009636	0.739694
	Zn217	Zn	0.490292	0.009845	0.240313
	Zn218	Zn	0.740944	0.507654	-0.008767
	Zn219	Zn	0.237471	0.507855	-0.008479
	Zn220	Zn	-0.009655	0.756950	0.489042
	Zn221	Zn	-0.009309	0.258804	0.490083
	Zn222	Zn	-0.011535	0.508358	0.741239
	Zn223	Zn	-0.010452	0.507599	0.240046
	Zn224	Zn	0.489211	0.759375	-0.008899
	Zn225	Zn	0.489976	0.258685	-0.009227
	Zn226	Zn	0.738404	0.007834	0.488567
	Zn227	Zn	0.242372	0.007370	0.489151
	N228	N	0.402148	0.973417	0.670619
	N229	N	0.578677	0.044961	0.671043
	N230	N	0.578233	0.973925	0.308767
	N231	N	0.403861	0.045038	0.311176
	N232	N	0.671954	0.418953	0.956655
	N233	N	0.671031	0.595579	0.027310
	N234	N	0.306462	0.597048	0.956595
	N235	N	0.308061	0.420539	0.027137
	N236	N	0.952747	0.684818	0.404989
	N237	N	0.026776	0.685406	0.574775
	N238	N	0.953301	0.330345	0.575405
	N239	N	0.027269	0.330268	0.405343
	N240	N	0.953766	0.420035	0.671266
	N241	N	0.023662	0.598462	0.673537
	N242	N	0.954017	0.595068	0.309903
	N243	N	0.024561	0.417759	0.307937
	N244	N	0.402157	0.688638	0.955148
	N245	N	0.574746	0.687001	0.028252
	N246	N	0.575013	0.330565	0.954870
	N247	N	0.404253	0.330242	0.027823
	N248	N	0.668759	0.972178	0.402164
	N249	N	0.668855	0.045472	0.575521
	N250	N	0.313448	0.971014	0.574587
	N251	N	0.311425	0.043773	0.402659
	N252	N	0.901159	0.472204	0.171710
	N253	N	0.077141	0.542863	0.171449
	N254	N	0.077039	0.472521	0.809740
	N255	N	0.901003	0.543237	0.810841
	N256	N	0.173481	0.917816	0.454131
	N257	N	0.172054	0.095039	0.524837
	N258	N	0.807734	0.096418	0.453799
	N259	N	0.807756	0.918626	0.523240
	N260	N	0.452732	0.186170	0.906075
	N261	N	0.527580	0.185772	0.074742
	N262	N	0.452818	0.831220	0.076570
	N263	N	0.525817	0.830610	0.905419
	N264	N	0.454938	0.921667	0.171272
	N265	N	0.524584	0.100135	0.173926
	N266	N	0.455639	0.099770	0.807318
	N267	N	0.524590	0.920969	0.809587
	N268	N	0.903503	0.187833	0.453606
	N269	N	0.076490	0.186417	0.525859
	N270	N	0.077328	0.827305	0.452960
	N271	N	0.905330	0.829846	0.525576
	N272	N	0.167526	0.471023	0.905138
	N273	N	0.166822	0.544272	0.077006
	N274	N	0.812920	0.470324	0.075387
	N275	N	0.811392	0.543976	0.905510
	O276	O	0.377345	0.594200	0.620959
	H277	H	0.376684	0.614260	0.642040
	H278	H	0.368726	0.600458	0.618182
	O279	O	0.837093	1.126970	-0.205378
	H280	H	0.842338	1.116302	-0.179371
	H281	H	0.853213	1.124713	-0.194101
	O282	O	-0.139176	-0.049671	0.917889
	H283	H	-0.138676	-0.052536	0.894536
	H284	H	-0.156033	-0.033096	0.912109
	O285	O	0.875787	-0.092240	-0.124855
	H286	H	0.892054	-0.086851	-0.125673
	H287	H	0.882122	-0.078497	-0.125408
	O288	O	-0.155383	-0.133542	1.132996
	H289	H	-0.165652	-0.130246	1.113017
	H290	H	-0.170652	-0.110783	1.125180
	O291	O	0.461156	0.557429	0.298548
	H292	H	0.475697	0.554523	0.294253
	H293	H	0.445640	0.559258	0.312461
	O294	O	0.438571	0.708079	0.633309
	H295	H	0.471137	0.701161	0.621719
	H296	H	0.438598	0.702309	0.648297
	O297	O	1.042134	0.940601	1.171639
	H298	H	1.016701	0.953041	1.181187
	H299	H	1.030001	0.920054	1.163830
	O300	O	-0.105651	0.099581	0.153579
	H301	H	-0.089733	0.115966	0.151056
	H302	H	-0.089520	0.114544	0.172635
	O303	O	0.672949	0.695457	0.504302
	H304	H	0.650733	0.707183	0.487730
	H305	H	0.687082	0.704604	0.496538
	O306	O	1.110822	0.205703	-0.031323
	H307	H	1.121883	0.188199	-0.044340
	H308	H	1.118064	0.206087	-0.024775
	O309	O	0.534342	0.355395	0.484741
	H310	H	0.539557	0.361772	0.488464
	H311	H	0.549397	0.336514	0.475080
	O312	O	1.330178	0.604697	0.472532
	H313	H	1.339027	0.606732	0.442370
	H314	H	1.329641	0.610953	0.465676
	O315	O	0.672206	0.370888	0.331602
	H316	H	0.674247	0.373191	0.345685
	H317	H	0.666171	0.378107	0.319307
	O318	O	0.395408	0.676437	0.297611
	H319	H	0.397075	0.671338	0.276268
	H320	H	0.389030	0.672759	0.305634
	O321	O	1.088745	0.169317	1.175694
	H322	H	1.112721	0.138818	1.181426
	H323	H	1.099914	0.179111	1.144771
	O324	O	0.060069	-0.189455	0.896001
	H325	H	0.064366	-0.205179	0.890877
	H326	H	0.062580	-0.182794	0.893834
	O327	O	0.388378	0.699265	0.464924
	H328	H	0.389932	0.702763	0.478258
	H329	H	0.380352	0.693470	0.466563
	O330	O	0.304944	0.527006	0.337571
	H331	H	0.278133	0.504169	0.329040
	H332	H	0.297648	0.523935	0.365603
	O333	O	0.810790	1.025800	1.095079
	H334	H	0.797509	1.033274	1.114007
	H335	H	0.835843	1.035783	1.096996
	O336	O	0.635887	0.695017	0.682677
	H337	H	0.640820	0.704029	0.639311
	H338	H	0.629543	0.704027	0.700667
	O339	O	1.002683	0.190470	1.193211
	H340	H	1.007984	0.211809	1.204597
	H341	H	1.046822	0.181134	1.187535
	O342	O	0.175378	1.017718	0.976729
	H343	H	0.185241	1.003809	0.975223
	H344	H	0.158675	1.015951	0.976712
	O345	O	0.537517	0.558604	0.657153
	H346	H	0.547062	0.549861	0.644391
	H347	H	0.522970	0.569578	0.660818
	O348	O	0.377781	0.389699	0.694011
	H349	H	0.392100	0.377282	0.692525
	H350	H	0.361894	0.378006	0.714389
	O351	O	0.157980	-0.046668	-0.108510
	H352	H	0.150440	-0.060402	-0.087885
	H353	H	0.160302	-0.040322	-0.106586
	O354	O	0.926486	1.004856	-0.091265
	H355	H	0.927682	1.018622	-0.093937
	H356	H	0.920934	1.007394	-0.095145
	O357	O	0.082798	0.981475	-0.009237
	H358	H	0.082045	0.968131	-0.004568
	H359	H	0.070655	0.974342	-0.003814
	O360	O	0.493991	0.380403	0.616275
	H361	H	0.510864	0.388224	0.619256
	H362	H	0.491549	0.380074	0.630663
	O363	O	0.451670	0.479963	0.426444
	H364	H	0.448111	0.473317	0.416961
	H365	H	0.448634	0.478860	0.419848
	O366	O	0.597669	0.408717	0.535614
	H367	H	0.602345	0.414631	0.526066
	H368	H	0.596878	0.422227	0.549629
	O369	O	0.453971	0.414810	0.386147
	H370	H	0.470994	0.413991	0.396054
	H371	H	0.446947	0.396216	0.373187
	O372	O	0.665694	0.442587	0.567164
	H373	H	0.671445	0.435892	0.580161
	H374	H	0.676869	0.473444	0.572547
	O375	O	0.425888	0.407642	0.538953
	H376	H	0.449411	0.403554	0.553604
	H377	H	0.433664	0.408053	0.536760
	O378	O	0.600117	0.473351	0.329853
	H379	H	0.588348	0.479249	0.328724
	H380	H	0.608227	0.473757	0.330957
	O381	O	0.372255	0.407311	0.590676
	H382	H	0.382787	0.411943	0.590835
	H383	H	0.366320	0.393880	0.594866
	O384	O	-0.061795	1.081303	1.004914
	H385	H	-0.063774	1.087795	1.019999
	H386	H	-0.060511	1.078382	1.013995
	O387	O	1.164376	1.050827	0.194071
	H388	H	1.142970	1.032100	0.193965
	H389	H	1.181838	1.035949	0.202130
	O390	O	0.652615	0.441417	0.556982
	H391	H	0.672040	0.443673	0.583392
	H392	H	0.651781	0.459583	0.551375
	O393	O	0.919311	-0.843679	1.790602
	H394	H	0.917183	-0.824090	1.773373
	H395	H	0.921649	-0.862962	1.794606
	O396	O	-0.029555	0.861569	1.140714
	H397	H	-0.065621	0.868755	1.129728
	H398	H	-0.039249	0.842845	1.157918
	O399	O	0.386553	0.578460	0.625410
	H400	H	0.375275	0.572899	0.612540
	H401	H	0.384434	0.578597	0.634231
	O402	O	0.793757	0.197855	0.930384
	H403	H	0.792086	0.196464	0.947896
	H404	H	0.799590	0.204029	0.945360
	O405	O	-0.146216	-0.087869	-0.066264
	H406	H	-0.151075	-0.075985	-0.082973
	H407	H	-0.148113	-0.072847	-0.061521
	O408	O	1.010818	1.022930	1.016921
	H409	H	1.015657	1.018158	1.010973
	H410	H	0.998234	1.004653	1.035340
	O411	O	1.091148	0.821539	-0.129692
	H412	H	1.106090	0.827359	-0.144025
	H413	H	1.100008	0.831592	-0.109050
	O414	O	0.050339	0.034073	0.937712
	H415	H	0.048602	0.032670	0.937607
	H416	H	0.045219	0.031681	0.927106
	O417	O	1.014077	-0.092809	0.850539
	H418	H	1.035790	-0.084158	0.850141
	H419	H	1.008793	-0.110767	0.840591
	O420	O	-0.067382	1.000035	0.043032
	H421	H	-0.068653	1.000707	0.048274
	H422	H	-0.057850	0.998671	0.041160
	O423	O	1.575623	0.661153	-0.565748
	H424	H	1.570527	0.649132	-0.561610
	H425	H	1.564890	0.648413	-0.565786
	O426	O	0.190053	-0.026028	0.793452
	H427	H	0.205641	-0.032059	0.787244
	H428	H	0.181404	-0.016931	0.787134
	O429	O	0.388987	0.340252	0.469819
	H430	H	0.410682	0.337806	0.464137
	H431	H	0.385402	0.350187	0.486779
