data_Molecule from HDF5

_cell_length_a		16.209345
_cell_length_b		16.290789
_cell_length_c		16.049446
_cell_angle_alpha	89.652385
_cell_angle_beta	90.503307
_cell_angle_gamma	89.703617
_symmetry_space_group_name_H-M	'P 1'
_symmetry_Int_Tables_number		1

loop_
	_symmetry_equiv_pos_as_xyz
	x,y,z

loop_
	_atom_site_label
	_atom_site_type_symbol
	_atom_site_fract_x
	_atom_site_fract_y
	_atom_site_fract_z
	H0	H	0.411552	0.831649	0.706200
	H1	H	0.602536	0.160860	0.708891
	H2	H	0.602944	0.831909	0.284347
	H3	H	0.404810	0.159794	0.279100
	H4	H	0.716822	0.398343	0.827422
	H5	H	0.718867	0.591352	0.159490
	H6	H	0.289501	0.596740	0.829611
	H7	H	0.295897	0.397381	0.161098
	H8	H	0.840018	0.713921	0.390133
	H9	H	0.166547	0.712837	0.597706
	H10	H	0.840440	0.281353	0.594201
	H11	H	0.167829	0.280488	0.395771
	H12	H	0.839679	0.400008	0.707447
	H13	H	0.169129	0.593177	0.708043
	H14	H	0.840372	0.594346	0.278368
	H15	H	0.170474	0.400853	0.285897
	H16	H	0.402058	0.712559	0.828890
	H17	H	0.607015	0.709485	0.159190
	H18	H	0.603486	0.282538	0.828507
	H19	H	0.408473	0.282331	0.159540
	H20	H	0.722076	0.833890	0.397948
	H21	H	0.720088	0.160781	0.595225
	H22	H	0.291205	0.832711	0.595325
	H23	H	0.286540	0.159283	0.392364
	H24	H	0.912133	0.331750	0.207131
	H25	H	0.104829	0.660392	0.208875
	H26	H	0.102193	0.332352	0.783177
	H27	H	0.905493	0.661096	0.779153
	H28	H	0.216746	0.898372	0.328711
	H29	H	0.217134	0.091787	0.660954
	H30	H	0.788638	0.098855	0.330541
	H31	H	0.795550	0.898830	0.661982
	H32	H	0.341822	0.216035	0.889122
	H33	H	0.669033	0.208659	0.096173
	H34	H	0.340458	0.779651	0.093437
	H35	H	0.667671	0.779811	0.894929
	H36	H	0.338837	0.897706	0.206871
	H37	H	0.669154	0.090708	0.208884
	H38	H	0.339598	0.095705	0.778715
	H39	H	0.670112	0.900645	0.785430
	H40	H	0.902440	0.211539	0.328956
	H41	H	0.105193	0.209671	0.659736
	H42	H	0.102278	0.782931	0.328908
	H43	H	0.906068	0.781617	0.659517
	H44	H	0.221110	0.332900	0.897000
	H45	H	0.222710	0.659317	0.095779
	H46	H	0.793076	0.331973	0.094406
	H47	H	0.786146	0.659140	0.890416
	H48	H	0.412724	0.113314	0.588485
	H49	H	0.598783	0.880994	0.590305
	H50	H	0.607471	0.115083	0.406039
	H51	H	0.413644	0.883648	0.415363
	H52	H	0.591804	0.404358	0.109677
	H53	H	0.595412	0.582446	0.877230
	H54	H	0.402510	0.591500	0.118060
	H55	H	0.422584	0.405207	0.878688
	H56	H	0.120972	0.590014	0.406982
	H57	H	0.884406	0.595926	0.584745
	H58	H	0.122004	0.401640	0.591016
	H59	H	0.887893	0.403932	0.405731
	H60	H	0.122579	0.398794	0.586962
	H61	H	0.888229	0.588825	0.581188
	H62	H	0.122580	0.589107	0.400835
	H63	H	0.887332	0.408359	0.396856
	H64	H	0.418413	0.574822	0.107956
	H65	H	0.589045	0.593499	0.875155
	H66	H	0.601963	0.391510	0.116914
	H67	H	0.407404	0.396030	0.871531
	H68	H	0.594268	0.115816	0.391244
	H69	H	0.602009	0.880169	0.588276
	H70	H	0.410350	0.112663	0.581297
	H71	H	0.396255	0.873810	0.399828
	H72	H	0.914445	0.611214	0.081735
	H73	H	0.102201	0.381669	0.079463
	H74	H	0.101516	0.613335	0.903532
	H75	H	0.916060	0.379761	0.895917
	H76	H	0.107001	0.901155	0.616957
	H77	H	0.086977	0.084997	0.379662
	H78	H	0.918996	0.089650	0.611914
	H79	H	0.907589	0.903103	0.374247
	H80	H	0.621377	0.087874	0.902404
	H81	H	0.388270	0.085660	0.084832
	H82	H	0.621857	0.902387	0.091792
	H83	H	0.383407	0.902266	0.891113
	H84	H	0.622324	0.899171	0.088176
	H85	H	0.384564	0.093878	0.089500
	H86	H	0.622228	0.090098	0.901418
	H87	H	0.385374	0.895584	0.906351
	H88	H	0.911548	0.095423	0.616830
	H89	H	0.093691	0.100116	0.372715
	H90	H	0.095071	0.913728	0.608667
	H91	H	0.910986	0.910127	0.377060
	H92	H	0.097963	0.614670	0.898757
	H93	H	0.109187	0.376147	0.094728
	H94	H	0.906466	0.614005	0.083110
	H95	H	0.914165	0.382435	0.908436
	H96	H	0.405317	0.115662	0.587262
	H97	H	0.602742	0.878927	0.591557
	H98	H	0.589132	0.109120	0.409016
	H99	H	0.419570	0.878637	0.391535
	H100	H	0.609470	0.406702	0.114193
	H101	H	0.601163	0.592271	0.872362
	H102	H	0.426415	0.598028	0.112859
	H103	H	0.406416	0.413986	0.876375
	H104	H	0.122415	0.594837	0.404214
	H105	H	0.885051	0.589281	0.590325
	H106	H	0.121341	0.404964	0.586486
	H107	H	0.884339	0.399004	0.398121
	H108	H	0.911466	0.614355	0.089008
	H109	H	0.093594	0.380736	0.094312
	H110	H	0.095544	0.612452	0.903670
	H111	H	0.905465	0.377275	0.901350
	H112	H	0.089667	0.895692	0.613093
	H113	H	0.104306	0.085201	0.373484
	H114	H	0.910237	0.086284	0.613970
	H115	H	0.914947	0.904292	0.376611
	H116	H	0.622092	0.090131	0.904351
	H117	H	0.387532	0.094120	0.079639
	H118	H	0.620278	0.902728	0.086299
	H119	H	0.390201	0.911527	0.902938
	C120	C	0.382762	0.005363	0.615696
	C121	C	0.628093	0.988271	0.617896
	C122	C	0.626167	0.004991	0.374318
	C123	C	0.380962	0.987088	0.372161
	C124	C	0.627945	0.373590	0.003214
	C125	C	0.625439	0.616776	0.984720
	C126	C	0.384525	0.617629	0.003525
	C127	C	0.384762	0.375618	0.985179
	C128	C	0.013383	0.619703	0.372453
	C129	C	0.994821	0.618772	0.615278
	C130	C	0.013075	0.374357	0.616397
	C131	C	0.995326	0.375091	0.373075
	C132	C	0.884189	0.504601	0.114433
	C133	C	0.129480	0.487894	0.117802
	C134	C	0.126924	0.505359	0.873651
	C135	C	0.882336	0.488122	0.871908
	C136	C	0.124994	0.875212	0.503346
	C137	C	0.124513	0.117663	0.485417
	C138	C	0.883422	0.119456	0.504387
	C139	C	0.883531	0.876491	0.485883
	C140	C	0.513582	0.119541	0.871590
	C141	C	0.495715	0.117680	0.114932
	C142	C	0.512654	0.873185	0.116554
	C143	C	0.495655	0.874952	0.872978
	C144	C	0.388900	0.881043	0.669876
	C145	C	0.623798	0.111859	0.671663
	C146	C	0.623786	0.881385	0.320567
	C147	C	0.383564	0.110423	0.316212
	C148	C	0.680744	0.377152	0.877639
	C149	C	0.681146	0.612610	0.109932
	C150	C	0.327403	0.616665	0.879025
	C151	C	0.332001	0.377283	0.110910
	C152	C	0.889478	0.675665	0.371547
	C153	C	0.118150	0.673859	0.615828
	C154	C	0.889234	0.319742	0.614036
	C155	C	0.119282	0.319038	0.375713
	C156	C	0.888884	0.378686	0.670186
	C157	C	0.119464	0.614484	0.670721
	C158	C	0.889466	0.616423	0.315872
	C159	C	0.120572	0.378941	0.321272
	C160	C	0.383931	0.673704	0.878508
	C161	C	0.625607	0.671229	0.109732
	C162	C	0.623960	0.319968	0.877981
	C163	C	0.387799	0.319633	0.110007
	C164	C	0.682617	0.882168	0.377550
	C165	C	0.682567	0.111698	0.615650
	C166	C	0.328944	0.881592	0.614791
	C167	C	0.325125	0.110261	0.372819
	C168	C	0.889859	0.380859	0.169824
	C169	C	0.126024	0.611141	0.172244
	C170	C	0.123522	0.381794	0.819839
	C171	C	0.884603	0.611582	0.816170
	C172	C	0.179356	0.877765	0.378269
	C173	C	0.180302	0.113727	0.610869
	C174	C	0.826653	0.118153	0.379947
	C175	C	0.831322	0.878595	0.611623
	C176	C	0.390362	0.176334	0.871141
	C177	C	0.619828	0.171173	0.114683
	C178	C	0.389245	0.817771	0.113838
	C179	C	0.619164	0.818929	0.875658
	C180	C	0.388370	0.876483	0.170339
	C181	C	0.619896	0.112541	0.170988
	C182	C	0.389360	0.116538	0.815968
	C183	C	0.620377	0.878877	0.821071
	C184	C	0.883140	0.174638	0.379188
	C185	C	0.124214	0.172110	0.610355
	C186	C	0.122275	0.820742	0.378323
	C187	C	0.886272	0.820046	0.610447
	C188	C	0.182746	0.381902	0.876571
	C189	C	0.184688	0.610581	0.115824
	C190	C	0.830737	0.381163	0.113424
	C191	C	0.825223	0.610680	0.871803
	C192	C	0.403298	0.091638	0.592626
	C193	C	0.607340	0.902331	0.596336
	C194	C	0.603563	0.091099	0.395571
	C195	C	0.403202	0.900979	0.395424
	C196	C	0.607228	0.394586	0.090836
	C197	C	0.602052	0.595629	0.897375
	C198	C	0.408661	0.594895	0.090515
	C199	C	0.405955	0.398294	0.897993
	C200	C	0.099554	0.597799	0.396763
	C201	C	0.908391	0.597541	0.592192
	C202	C	0.099521	0.395427	0.594579
	C203	C	0.908887	0.397268	0.393996
	C204	C	0.904742	0.590939	0.091384
	C205	C	0.107987	0.401699	0.095959
	C206	C	0.105001	0.591386	0.895531
	C207	C	0.905195	0.401898	0.895140
	C208	C	0.103514	0.896992	0.590358
	C209	C	0.101826	0.096472	0.397818
	C210	C	0.906838	0.097054	0.591761
	C211	C	0.904838	0.899170	0.398456
	C212	C	0.599755	0.096127	0.895758
	C213	C	0.409207	0.097289	0.091442
	C214	C	0.599140	0.895055	0.095151
	C215	C	0.408694	0.896783	0.894009
	Zn216	Zn	0.504785	-0.003798	0.744761
	Zn217	Zn	0.503847	-0.004600	0.244385
	Zn218	Zn	0.753636	0.495865	-0.006683
	Zn219	Zn	0.257186	0.496411	-0.004165
	Zn220	Zn	0.003482	0.748045	0.494308
	Zn221	Zn	0.003971	0.246454	0.494137
	Zn222	Zn	0.004505	0.497111	0.743833
	Zn223	Zn	0.005709	0.497194	0.244906
	Zn224	Zn	0.504572	0.745407	-0.005938
	Zn225	Zn	0.505102	0.247359	-0.006122
	Zn226	Zn	0.756813	-0.001907	0.496132
	Zn227	Zn	0.252955	-0.003799	0.494239
	N228	N	0.421437	0.959036	0.670777
	N229	N	0.590699	0.034276	0.673578
	N230	N	0.589108	0.958761	0.318649
	N231	N	0.417685	0.032816	0.315717
	N232	N	0.683267	0.409669	0.956433
	N233	N	0.680882	0.579276	0.031218
	N234	N	0.327749	0.582228	0.957671
	N235	N	0.330032	0.411697	0.032311
	N236	N	0.967560	0.677811	0.406293
	N237	N	0.039789	0.676725	0.582053
	N238	N	0.967501	0.316854	0.581313
	N239	N	0.040554	0.316348	0.406954
	N240	N	0.966732	0.412021	0.671584
	N241	N	0.041777	0.581048	0.670794
	N242	N	0.967329	0.582508	0.316247
	N243	N	0.042694	0.413153	0.319498
	N244	N	0.418728	0.674474	0.956974
	N245	N	0.591645	0.673921	0.030893
	N246	N	0.591926	0.317406	0.957208
	N247	N	0.419847	0.318494	0.030965
	N248	N	0.684536	0.960151	0.409985
	N249	N	0.685229	0.033891	0.582841
	N250	N	0.325090	0.959726	0.581750
	N251	N	0.323400	0.032552	0.406893
	N252	N	0.922421	0.458727	0.170567
	N253	N	0.092329	0.533747	0.173637
	N254	N	0.089529	0.459426	0.817892
	N255	N	0.919529	0.534384	0.816329
	N256	N	0.181111	0.911133	0.456835
	N257	N	0.180682	0.080672	0.532137
	N258	N	0.826830	0.084217	0.458709
	N259	N	0.829495	0.913059	0.533192
	N260	N	0.468592	0.178308	0.905218
	N261	N	0.541514	0.174484	0.080410
	N262	N	0.467483	0.815796	0.081165
	N263	N	0.540465	0.816316	0.906941
	N264	N	0.466069	0.910341	0.172102
	N265	N	0.541831	0.079949	0.171329
	N266	N	0.467013	0.081972	0.816261
	N267	N	0.542542	0.913185	0.819485
	N268	N	0.917941	0.175482	0.457766
	N269	N	0.090222	0.174524	0.531418
	N270	N	0.089485	0.818719	0.457160
	N271	N	0.917877	0.818596	0.531185
	N272	N	0.185050	0.459744	0.909329
	N273	N	0.186845	0.532921	0.082899
	N274	N	0.827014	0.459140	0.079730
	N275	N	0.823598	0.532735	0.905594
	O276	O	0.963858	0.936837	-0.007732
	H277	H	0.968787	0.946885	-0.015945
	H278	H	0.961309	0.945288	-0.009885
	O279	O	0.026815	0.108319	1.023832
	H280	H	0.017538	0.115955	1.029832
	H281	H	0.027084	0.110962	1.021618
	O282	O	0.024129	0.033969	-0.008984
	H283	H	0.030337	0.034676	-0.014186
	H284	H	0.028582	0.025925	-0.005649
	O285	O	0.494404	0.564469	0.499144
	H286	H	0.493792	0.549461	0.504637
	H287	H	0.503763	0.568966	0.502527
	O288	O	0.064135	-0.014491	0.025249
	H289	H	0.062519	-0.020514	0.031416
	H290	H	0.059626	-0.008690	0.031867
	O291	O	0.027954	1.041010	-0.033883
	H292	H	0.026776	1.043540	-0.046538
	H293	H	0.022512	1.043082	-0.032004
	O294	O	0.019739	0.943309	0.006438
	H295	H	0.020322	0.943730	0.003019
	H296	H	0.020936	0.943435	0.006630
	O297	O	0.527741	0.507701	0.515324
	H298	H	0.530814	0.513324	0.521039
	H299	H	0.524964	0.507350	0.517934
	O300	O	0.492275	0.492011	0.548741
	H301	H	0.488884	0.502391	0.550774
	H302	H	0.493666	0.493499	0.554831
	O303	O	0.978538	-0.015891	1.073386
	H304	H	0.972081	-0.013242	1.075591
	H305	H	0.973996	-0.023854	1.082917
	O306	O	-0.111650	0.955023	0.991033
	H307	H	-0.116997	0.959516	0.985700
	H308	H	-0.118996	0.957038	0.983653
	O309	O	-0.065750	1.041971	1.004120
	H310	H	-0.054779	1.039372	0.998359
	H311	H	-0.067849	1.028965	1.006553
	O312	O	0.016608	-0.001664	0.968512
	H313	H	0.016731	-0.007198	0.973096
	H314	H	0.023990	-0.003629	0.978861
	O315	O	0.530153	0.527720	0.514497
	H316	H	0.516929	0.526215	0.500043
	H317	H	0.536711	0.534195	0.515731
	O318	O	0.048301	-0.056363	0.981743
	H319	H	0.039905	-0.067003	0.983124
	H320	H	0.046658	-0.059426	0.978151
	O321	O	0.485773	0.476853	0.454751
	H322	H	0.484653	0.473732	0.454305
	H323	H	0.492788	0.475182	0.454061
	O324	O	1.014941	0.061579	1.037540
	H325	H	1.016861	0.063741	1.038960
	H326	H	1.019562	0.053211	1.036483
	O327	O	0.931068	0.988803	0.928740
	H328	H	0.937076	0.997665	0.934228
	H329	H	0.931317	0.997019	0.921468
	O330	O	0.423595	0.518872	0.481165
	H331	H	0.418312	0.512665	0.468895
	H332	H	0.416073	0.530588	0.482015
	O333	O	0.958086	-0.036124	-0.046748
	H334	H	0.965796	-0.032488	-0.061545
	H335	H	0.952408	-0.040466	-0.046778
	O336	O	0.516669	0.568888	0.481034
	H337	H	0.518202	0.576252	0.474759
	H338	H	0.516676	0.565618	0.492350
	O339	O	0.470675	0.496867	0.495157
	H340	H	0.473905	0.489309	0.492255
	H341	H	0.467912	0.498524	0.491014
	O342	O	-0.001871	1.006912	0.980373
	H343	H	-0.001666	1.010943	0.987459
	H344	H	-0.001881	1.009257	0.985847
	O345	O	0.465013	0.538477	0.517519
	H346	H	0.458238	0.541126	0.512016
	H347	H	0.467878	0.530919	0.526180
