data_Molecule from HDF5

_cell_length_a		16.546006
_cell_length_b		16.446973
_cell_length_c		16.423102
_cell_angle_alpha	90.159919
_cell_angle_beta	89.901749
_cell_angle_gamma	89.904193
_symmetry_space_group_name_H-M	'P 1'
_symmetry_Int_Tables_number		1

loop_
	_symmetry_equiv_pos_as_xyz
	x,y,z

loop_
	_atom_site_label
	_atom_site_type_symbol
	_atom_site_fract_x
	_atom_site_fract_y
	_atom_site_fract_z
	H0	H	0.394764	0.850457	0.720947
	H1	H	0.602889	0.166576	0.720004
	H2	H	0.608861	0.852506	0.274100
	H3	H	0.394344	0.166782	0.279796
	H4	H	0.721784	0.400214	0.842648
	H5	H	0.722770	0.615401	0.157470
	H6	H	0.277145	0.614513	0.843039
	H7	H	0.276046	0.400778	0.157431
	H8	H	0.842265	0.728757	0.394512
	H9	H	0.156946	0.729718	0.603784
	H10	H	0.843838	0.284816	0.605914
	H11	H	0.158085	0.286128	0.393788
	H12	H	0.843532	0.401082	0.722947
	H13	H	0.156918	0.612934	0.720606
	H14	H	0.841569	0.612197	0.279165
	H15	H	0.158332	0.404423	0.278371
	H16	H	0.396171	0.728574	0.841415
	H17	H	0.607085	0.731604	0.157201
	H18	H	0.603860	0.286359	0.842117
	H19	H	0.393482	0.287673	0.158450
	H20	H	0.725427	0.852896	0.388948
	H21	H	0.722909	0.164525	0.606953
	H22	H	0.276465	0.851365	0.606800
	H23	H	0.275837	0.165277	0.392380
	H24	H	0.894973	0.349312	0.220525
	H25	H	0.102698	0.666310	0.220125
	H26	H	0.105559	0.350859	0.777088
	H27	H	0.895155	0.665995	0.779728
	H28	H	0.224964	0.898121	0.342600
	H29	H	0.220523	0.113665	0.657686
	H30	H	0.775946	0.116387	0.343076
	H31	H	0.777403	0.901829	0.656568
	H32	H	0.341299	0.230034	0.895951
	H33	H	0.655966	0.231646	0.105742
	H34	H	0.343881	0.784654	0.107472
	H35	H	0.655399	0.784957	0.891521
	H36	H	0.343314	0.901514	0.224205
	H37	H	0.655357	0.117229	0.224166
	H38	H	0.341574	0.114401	0.778518
	H39	H	0.655447	0.902598	0.775944
	H40	H	0.895042	0.229138	0.341272
	H41	H	0.104878	0.229794	0.657900
	H42	H	0.106337	0.784536	0.341093
	H43	H	0.894564	0.786756	0.656709
	H44	H	0.222331	0.350623	0.892639
	H45	H	0.222492	0.664701	0.109061
	H46	H	0.778465	0.349231	0.104767
	H47	H	0.776596	0.664067	0.893323
	H48	H	0.408101	0.121087	0.586628
	H49	H	0.588065	0.895403	0.587361
	H50	H	0.584700	0.120447	0.410062
	H51	H	0.405128	0.894253	0.413417
	H52	H	0.587284	0.422087	0.112030
	H53	H	0.584553	0.594207	0.889389
	H54	H	0.411192	0.591095	0.110991
	H55	H	0.410491	0.412485	0.885505
	H56	H	0.110945	0.592716	0.410197
	H57	H	0.886889	0.604497	0.585520
	H58	H	0.112368	0.423094	0.592568
	H59	H	0.886454	0.414961	0.406927
	H60	H	0.113761	0.413700	0.587375
	H61	H	0.890555	0.591899	0.585086
	H62	H	0.113259	0.597099	0.406613
	H63	H	0.888726	0.417278	0.415266
	H64	H	0.415878	0.599112	0.112032
	H65	H	0.588957	0.598433	0.886245
	H66	H	0.587505	0.418044	0.113349
	H67	H	0.404274	0.424114	0.886524
	H68	H	0.586940	0.119042	0.417029
	H69	H	0.588546	0.895507	0.585827
	H70	H	0.409058	0.122281	0.590473
	H71	H	0.416490	0.895149	0.406612
	H72	H	0.908718	0.621452	0.089912
	H73	H	0.088622	0.394518	0.089283
	H74	H	0.088409	0.622717	0.908448
	H75	H	0.915632	0.396516	0.912645
	H76	H	0.086385	0.919022	0.610657
	H77	H	0.087806	0.101942	0.384889
	H78	H	0.903731	0.095267	0.615097
	H79	H	0.911672	0.915062	0.384197
	H80	H	0.609150	0.092434	0.910220
	H81	H	0.386732	0.095196	0.093741
	H82	H	0.612292	0.924437	0.095634
	H83	H	0.387089	0.922017	0.909839
	H84	H	0.613710	0.911830	0.085614
	H85	H	0.386263	0.102858	0.087864
	H86	H	0.613362	0.099005	0.905831
	H87	H	0.385229	0.916154	0.908905
	H88	H	0.915383	0.089101	0.608138
	H89	H	0.095774	0.094144	0.384738
	H90	H	0.088892	0.919139	0.611495
	H91	H	0.908046	0.923064	0.385791
	H92	H	0.085856	0.619665	0.913191
	H93	H	0.087330	0.396339	0.086333
	H94	H	0.911292	0.619768	0.089635
	H95	H	0.908784	0.394550	0.914544
	H96	H	0.411856	0.120144	0.587996
	H97	H	0.589639	0.895318	0.587336
	H98	H	0.590958	0.122460	0.411989
	H99	H	0.415664	0.900213	0.418858
	H100	H	0.590933	0.420819	0.114262
	H101	H	0.591225	0.592159	0.887465
	H102	H	0.406561	0.599121	0.115498
	H103	H	0.416766	0.423273	0.890433
	H104	H	0.111409	0.597936	0.412915
	H105	H	0.885104	0.596765	0.596374
	H106	H	0.109109	0.422042	0.582329
	H107	H	0.889378	0.423205	0.409540
	H108	H	0.909667	0.620123	0.087318
	H109	H	0.091110	0.394699	0.085907
	H110	H	0.092136	0.621830	0.913917
	H111	H	0.910834	0.393512	0.907497
	H112	H	0.088143	0.921563	0.610192
	H113	H	0.085475	0.091951	0.389034
	H114	H	0.916406	0.103477	0.612840
	H115	H	0.916103	0.921425	0.388487
	H116	H	0.610173	0.100540	0.914590
	H117	H	0.390085	0.094155	0.084674
	H118	H	0.606376	0.925832	0.080605
	H119	H	0.387444	0.918046	0.914332
	C120	C	0.377433	0.016992	0.621056
	C121	C	0.620692	0.999481	0.620318
	C122	C	0.621506	0.017241	0.378328
	C123	C	0.379226	1.000309	0.379692
	C124	C	0.620622	0.387102	0.008741
	C125	C	0.621709	0.629044	0.991679
	C126	C	0.378902	0.629088	0.008368
	C127	C	0.377792	0.387308	0.991734
	C128	C	0.007978	0.629032	0.377596
	C129	C	0.991552	0.629887	0.620944
	C130	C	0.008302	0.386711	0.620572
	C131	C	0.992058	0.386184	0.377798
	C132	C	0.877758	0.515932	0.121440
	C133	C	0.120990	0.499270	0.120643
	C134	C	0.121789	0.517234	0.878414
	C135	C	0.879128	0.499238	0.878926
	C136	C	0.121137	0.886498	0.507055
	C137	C	0.121476	0.128989	0.490977
	C138	C	0.878924	0.129199	0.507896
	C139	C	0.878948	0.887183	0.490272
	C140	C	0.507057	0.129931	0.878454
	C141	C	0.490748	0.130952	0.121972
	C142	C	0.508011	0.887064	0.121632
	C143	C	0.490552	0.886373	0.877947
	C144	C	0.375854	0.897940	0.681076
	C145	C	0.621983	0.118962	0.680265
	C146	C	0.625961	0.899631	0.315426
	C147	C	0.376359	0.119084	0.319319
	C148	C	0.681094	0.383204	0.889855
	C149	C	0.682381	0.632710	0.110130
	C150	C	0.317838	0.632366	0.889959
	C151	C	0.316993	0.383900	0.110231
	C152	C	0.889456	0.688845	0.375888
	C153	C	0.109826	0.689669	0.622356
	C154	C	0.890526	0.325749	0.623772
	C155	C	0.110895	0.326314	0.375502
	C156	C	0.890469	0.383358	0.682126
	C157	C	0.109801	0.631811	0.680593
	C158	C	0.889363	0.630792	0.318223
	C159	C	0.110872	0.384958	0.317935
	C160	C	0.376793	0.689141	0.889077
	C161	C	0.624657	0.690633	0.110048
	C162	C	0.622760	0.326250	0.889643
	C163	C	0.375541	0.327228	0.110686
	C164	C	0.684188	0.899797	0.372582
	C165	C	0.681637	0.117863	0.624224
	C166	C	0.317200	0.898273	0.624188
	C167	C	0.317139	0.118153	0.375447
	C168	C	0.876126	0.396872	0.181055
	C169	C	0.121924	0.618741	0.180584
	C170	C	0.124058	0.398350	0.817355
	C171	C	0.876452	0.618245	0.819090
	C172	C	0.183421	0.881756	0.389129
	C173	C	0.180923	0.131682	0.610113
	C174	C	0.817245	0.133404	0.389953
	C175	C	0.818129	0.884098	0.609127
	C176	C	0.388565	0.189896	0.877159
	C177	C	0.608675	0.191539	0.124360
	C178	C	0.390648	0.825425	0.125366
	C179	C	0.608604	0.825624	0.874062
	C180	C	0.390415	0.883381	0.183586
	C181	C	0.608425	0.134672	0.183372
	C182	C	0.388580	0.132311	0.818771
	C183	C	0.608339	0.883893	0.816351
	C184	C	0.876373	0.189743	0.389148
	C185	C	0.123222	0.189488	0.610186
	C186	C	0.124619	0.825064	0.388404
	C187	C	0.876243	0.826713	0.609360
	C188	C	0.182383	0.398394	0.874739
	C189	C	0.181795	0.617505	0.125296
	C190	C	0.817629	0.397118	0.124106
	C191	C	0.817837	0.617263	0.875926
	C192	C	0.402436	0.099558	0.595505
	C193	C	0.595726	0.917038	0.594329
	C194	C	0.595154	0.099296	0.405546
	C195	C	0.405219	0.917684	0.405534
	C196	C	0.595616	0.412961	0.091632
	C197	C	0.595732	0.602622	0.909248
	C198	C	0.404124	0.603830	0.091283
	C199	C	0.403135	0.412722	0.908853
	C200	C	0.090268	0.603427	0.402866
	C201	C	0.908925	0.604942	0.596180
	C202	C	0.090112	0.412269	0.594861
	C203	C	0.909816	0.411171	0.403160
	C204	C	0.902614	0.598727	0.096093
	C205	C	0.095955	0.416797	0.094836
	C206	C	0.096255	0.599837	0.904376
	C207	C	0.904699	0.416371	0.904221
	C208	C	0.095224	0.912527	0.589392
	C209	C	0.096793	0.103429	0.407885
	C210	C	0.904504	0.103189	0.590425
	C211	C	0.904701	0.912683	0.407884
	C212	C	0.589400	0.104618	0.903166
	C213	C	0.408962	0.104798	0.096253
	C214	C	0.589509	0.913243	0.095088
	C215	C	0.408280	0.911539	0.903685
	Zn216	Zn	0.498813	0.008927	0.749141
	Zn217	Zn	0.499599	0.009116	0.250456
	Zn218	Zn	0.749931	0.506838	-0.000306
	Zn219	Zn	0.249420	0.508351	0.000134
	Zn220	Zn	-0.000041	0.758230	0.498510
	Zn221	Zn	0.000213	0.257263	0.499526
	Zn222	Zn	-0.000056	0.508173	0.750112
	Zn223	Zn	-0.000187	0.507681	0.248953
	Zn224	Zn	0.499873	0.757553	-0.000202
	Zn225	Zn	0.499167	0.259278	0.000084
	Zn226	Zn	0.750225	0.008515	0.499498
	Zn227	Zn	0.249264	0.007668	0.499445
	N228	N	0.412250	0.972902	0.679552
	N229	N	0.584776	0.044370	0.678064
	N230	N	0.587971	0.973783	0.318709
	N231	N	0.414366	0.044712	0.321932
	N232	N	0.679929	0.420284	0.964955
	N233	N	0.680773	0.595236	0.035255
	N234	N	0.318738	0.596165	0.965255
	N235	N	0.318441	0.420710	0.035310
	N236	N	0.964245	0.687879	0.412009
	N237	N	0.034968	0.688597	0.586156
	N238	N	0.964727	0.327721	0.586251
	N239	N	0.035966	0.326753	0.411845
	N240	N	0.964519	0.420831	0.680209
	N241	N	0.035105	0.595590	0.679973
	N242	N	0.964111	0.594179	0.319315
	N243	N	0.035985	0.421119	0.319204
	N244	N	0.413909	0.687205	0.963728
	N245	N	0.587677	0.688528	0.035267
	N246	N	0.585893	0.328516	0.964631
	N247	N	0.412758	0.329339	0.035814
	N248	N	0.681514	0.974170	0.411124
	N249	N	0.681218	0.042637	0.587894
	N250	N	0.317986	0.973371	0.587737
	N251	N	0.318621	0.043133	0.412143
	N252	N	0.912563	0.471793	0.179670
	N253	N	0.084957	0.544140	0.177924
	N254	N	0.087352	0.473399	0.819218
	N255	N	0.913702	0.543613	0.820705
	N256	N	0.181386	0.919283	0.463930
	N257	N	0.179902	0.095042	0.534814
	N258	N	0.818785	0.096515	0.464797
	N259	N	0.819536	0.920921	0.534136
	N260	N	0.463177	0.188499	0.913511
	N261	N	0.534379	0.189459	0.087204
	N262	N	0.464722	0.827413	0.087581
	N263	N	0.534386	0.826918	0.911563
	N264	N	0.464453	0.921030	0.181367
	N265	N	0.534011	0.097672	0.181985
	N266	N	0.463301	0.095616	0.819461
	N267	N	0.534060	0.921248	0.818741
	N268	N	0.914165	0.187150	0.463503
	N269	N	0.087202	0.188093	0.534927
	N270	N	0.086581	0.827992	0.462608
	N271	N	0.913562	0.828654	0.534602
	N272	N	0.181145	0.473490	0.911794
	N273	N	0.181628	0.542073	0.088889
	N274	N	0.818331	0.472382	0.087979
	N275	N	0.819275	0.542085	0.912145
	O276	O	0.521773	0.299202	0.296084
	H277	H	0.507657	0.279300	0.299230
	H278	H	0.541296	0.285454	0.296937
	O279	O	0.563306	0.588155	0.299098
	H280	H	0.551412	0.584497	0.297443
	H281	H	0.559361	0.585211	0.302481
	O282	O	1.205282	1.210750	0.033796
	H283	H	1.206212	1.205269	0.018096
	H284	H	1.196890	1.230807	0.012419
	O285	O	0.792422	0.062507	0.056048
	H286	H	0.789898	0.047272	0.048695
	H287	H	0.800319	0.047231	0.056156
	O288	O	0.208092	0.028132	0.202683
	H289	H	0.195502	0.003138	0.204365
	H290	H	0.223219	0.017299	0.209576
	O291	O	1.207319	0.877197	-0.206806
	H292	H	1.215340	0.883867	-0.197881
	H293	H	1.227652	0.879676	-0.213835
	O294	O	0.202134	0.795038	-0.008141
	H295	H	0.205565	0.789365	-0.029106
	H296	H	0.215917	0.789844	-0.004082
	O297	O	0.703058	0.712364	0.700578
	H298	H	0.691382	0.706117	0.675791
	H299	H	0.696378	0.680302	0.693995
	O300	O	0.676189	0.357322	0.636576
	H301	H	0.691232	0.346315	0.645287
	H302	H	0.680953	0.356107	0.611730
	O303	O	0.304955	0.312506	0.691598
	H304	H	0.319471	0.339414	0.696877
	H305	H	0.316323	0.325559	0.679780
	O306	O	-0.099203	0.886694	0.812531
	H307	H	-0.083889	0.887206	0.814035
	H308	H	-0.112634	0.878934	0.796220
	O309	O	0.250751	0.287074	0.289493
	H310	H	0.249560	0.249900	0.304559
	H311	H	0.261171	0.283770	0.268544
	O312	O	0.468013	0.298965	0.694112
	H313	H	0.480436	0.297484	0.702267
	H314	H	0.466507	0.295785	0.707495
	O315	O	-0.065019	-0.182703	1.127476
	H316	H	-0.064302	-0.183633	1.120522
	H317	H	-0.049573	-0.182251	1.117071
	O318	O	-0.025936	0.967172	-0.019858
	H319	H	-0.024594	0.957757	-0.023714
	H320	H	-0.012368	0.967331	-0.012286
	O321	O	0.458551	0.453290	0.410466
	H322	H	0.467913	0.452896	0.418605
	H323	H	0.470593	0.434265	0.415657
	O324	O	0.709709	0.722597	0.529696
	H325	H	0.725606	0.734142	0.524092
	H326	H	0.709471	0.720895	0.516563
	O327	O	1.185292	0.084751	0.891763
	H328	H	1.188104	0.099784	0.889428
	H329	H	1.167131	0.088714	0.901049
	O330	O	1.029482	0.228477	0.220739
	H331	H	1.056339	0.244964	0.237010
	H332	H	1.058641	0.232106	0.228281
	O333	O	0.785398	0.858196	0.999131
	H334	H	0.784393	0.847382	0.998156
	H335	H	0.786493	0.843536	1.010179
	O336	O	1.013194	0.000992	1.062067
	H337	H	1.034018	0.006008	1.054355
	H338	H	1.016443	-0.009375	1.065218
	O339	O	0.523414	0.460404	0.706073
	H340	H	0.529585	0.468640	0.706389
	H341	H	0.525174	0.453323	0.703920
	O342	O	0.282029	0.292554	0.525963
	H343	H	0.256956	0.274727	0.531009
	H344	H	0.280737	0.304780	0.545731
	O345	O	-0.046973	0.008520	0.107858
	H346	H	-0.036094	0.014040	0.115894
	H347	H	-0.037141	-0.007330	0.114151
	O348	O	1.076537	0.189948	0.921059
	H349	H	1.059567	0.205061	0.912717
	H350	H	1.062749	0.174970	0.909896
	O351	O	0.891326	0.901021	-0.028488
	H352	H	0.872557	0.895637	-0.039297
	H353	H	0.890180	0.906384	-0.034343
	O354	O	0.711472	0.539406	0.711820
	H355	H	0.735022	0.535089	0.720075
	H356	H	0.721617	0.529534	0.693741
	O357	O	1.089809	0.907359	1.142677
	H358	H	1.078609	0.891342	1.132563
	H359	H	1.086880	0.916880	1.140784
	O360	O	0.716063	0.310611	0.488977
	H361	H	0.702727	0.310912	0.475255
	H362	H	0.738218	0.292394	0.462312
	O363	O	0.495759	0.714986	0.517227
	H364	H	0.505724	0.715189	0.529428
	H365	H	0.464398	0.716773	0.506429
	O366	O	0.802875	0.201477	0.794105
	H367	H	0.818531	0.205136	0.818241
	H368	H	0.796564	0.169894	0.804692
	O369	O	0.698608	0.557723	0.440700
	H370	H	0.694284	0.545362	0.428033
	H371	H	0.684986	0.562186	0.442002
	O372	O	0.676766	0.328637	0.326496
	H373	H	0.645143	0.340078	0.323806
	H374	H	0.694576	0.345182	0.310579
	O375	O	0.041845	1.160780	0.827325
	H376	H	0.049832	1.159142	0.797829
	H377	H	0.020498	1.144628	0.835027
	O378	O	0.714666	0.478947	0.286195
	H379	H	0.744719	0.480866	0.255034
	H380	H	0.694402	0.496196	0.292094
	O381	O	0.786490	-0.019159	0.207822
	H382	H	0.787572	-0.013854	0.199280
	H383	H	0.770691	-0.020807	0.230236
	O384	O	-0.206440	0.029857	0.789039
	H385	H	-0.196558	0.027294	0.785963
	H386	H	-0.213520	0.020557	0.782404
	O387	O	-0.093685	1.010846	1.172181
	H388	H	-0.096537	1.015527	1.178457
	H389	H	-0.096086	1.013563	1.177998
	O390	O	0.113762	-0.202518	0.870124
	H391	H	0.129577	-0.181613	0.869028
	H392	H	0.101601	-0.215948	0.854508
	O393	O	0.812125	0.814995	0.191082
	H394	H	0.813138	0.838111	0.184163
	H395	H	0.837715	0.819552	0.181747
	O396	O	0.507659	0.368965	0.531727
	H397	H	0.501371	0.356127	0.540019
	H398	H	0.509061	0.373845	0.544037
	O399	O	0.367600	0.704472	0.444056
	H400	H	0.344708	0.684026	0.426182
	H401	H	0.389578	0.706983	0.428203
	O402	O	0.097265	-0.020137	1.137637
	H403	H	0.091366	-0.007991	1.146934
	H404	H	0.106097	-0.003657	1.129228
	O405	O	0.187010	0.094989	0.127919
	H406	H	0.194972	0.067254	0.115629
	H407	H	0.188984	0.094232	0.115199
	O408	O	0.474743	0.718583	0.288045
	H409	H	0.475992	0.748323	0.254879
	H410	H	0.502113	0.710560	0.314047
	O411	O	0.291715	0.480183	0.486821
	H412	H	0.299116	0.478462	0.479947
	H413	H	0.296154	0.484397	0.499577
	O414	O	0.526096	0.718959	0.705656
	H415	H	0.531270	0.725757	0.706762
	H416	H	0.530869	0.731642	0.703205
	O417	O	0.459961	0.311218	0.458635
	H418	H	0.462886	0.303543	0.475873
	H419	H	0.453702	0.307616	0.472630
	O420	O	0.460127	0.718861	0.391161
	H421	H	0.481461	0.705594	0.394999
	H422	H	0.466105	0.714822	0.400474
	O423	O	-0.596702	0.610344	0.497768
	H424	H	-0.618841	0.623255	0.497019
	H425	H	-0.596679	0.598538	0.479701
	O426	O	0.946614	1.000525	0.953367
	H427	H	0.948631	0.994291	0.955040
	H428	H	0.952663	1.007721	0.932248
	O429	O	0.703230	0.549410	0.475547
	H430	H	0.698767	0.528391	0.467029
	H431	H	0.698419	0.553272	0.460666
	O432	O	0.860849	0.196732	0.916920
	H433	H	0.845928	0.203671	0.917042
	H434	H	0.861053	0.182090	0.940917
	O435	O	0.095646	-0.035430	0.098039
	H436	H	0.082622	-0.043786	0.099590
	H437	H	0.103343	-0.040253	0.082335
	O438	O	0.968508	0.215445	0.045261
	H439	H	0.962492	0.221989	0.060124
	H440	H	0.959870	0.212950	0.059304
	O441	O	0.521414	0.506597	0.431050
	H442	H	0.519869	0.505463	0.428490
	H443	H	0.514044	0.498692	0.442253
	O444	O	0.112777	0.969510	0.798526
	H445	H	0.135720	0.967904	0.791488
	H446	H	0.102548	0.959568	0.802196
	O447	O	0.353990	0.492151	0.300994
	H448	H	0.363042	0.469326	0.292556
	H449	H	0.359297	0.473846	0.327581
	O450	O	0.292423	0.626053	0.378404
	H451	H	0.310499	0.610203	0.362847
	H452	H	0.274415	0.618612	0.345527
	O453	O	0.479825	0.549896	0.708276
	H454	H	0.507040	0.558057	0.708876
	H455	H	0.483714	0.549487	0.713060
	O456	O	0.872477	-0.046959	-0.141750
	H457	H	0.879461	-0.047665	-0.135717
	H458	H	0.846475	-0.064371	-0.164921
	O459	O	0.287431	0.479497	0.710929
	H460	H	0.288274	0.496814	0.726426
	H461	H	0.275407	0.495690	0.712893
	O462	O	0.302796	0.644415	0.647159
	H463	H	0.321833	0.634660	0.633253
	H464	H	0.307776	0.653367	0.621697
	O465	O	0.987768	-0.128709	-0.216667
	H466	H	0.985500	-0.137580	-0.225955
	H467	H	0.988058	-0.135435	-0.209171
