data_Molecule from HDF5

_cell_length_a		16.393864
_cell_length_b		16.560875
_cell_length_c		16.445545
_cell_angle_alpha	89.900633
_cell_angle_beta	90.043687
_cell_angle_gamma	90.064639
_symmetry_space_group_name_H-M	'P 1'
_symmetry_Int_Tables_number		1

loop_
	_symmetry_equiv_pos_as_xyz
	x,y,z

loop_
	_atom_site_label
	_atom_site_type_symbol
	_atom_site_fract_x
	_atom_site_fract_y
	_atom_site_fract_z
	H0	H	0.398675	0.844041	0.731161
	H1	H	0.609783	0.158171	0.727983
	H2	H	0.611318	0.845651	0.284447
	H3	H	0.399650	0.159385	0.285073
	H4	H	0.720816	0.404457	0.848370
	H5	H	0.724699	0.607735	0.167242
	H6	H	0.285516	0.604417	0.848055
	H7	H	0.281820	0.395015	0.165267
	H8	H	0.848087	0.721473	0.405671
	H9	H	0.164383	0.724851	0.618197
	H10	H	0.847316	0.283756	0.608555
	H11	H	0.165963	0.279919	0.400722
	H12	H	0.845921	0.402294	0.723875
	H13	H	0.164676	0.606687	0.730571
	H14	H	0.846643	0.604411	0.290831
	H15	H	0.164740	0.395483	0.284231
	H16	H	0.398131	0.723870	0.849323
	H17	H	0.611514	0.726024	0.164758
	H18	H	0.606801	0.285340	0.848834
	H19	H	0.396211	0.276969	0.164105
	H20	H	0.727742	0.845555	0.401386
	H21	H	0.726232	0.158915	0.609540
	H22	H	0.284059	0.843596	0.613188
	H23	H	0.285459	0.160609	0.404062
	H24	H	0.901137	0.345754	0.229573
	H25	H	0.112105	0.659412	0.231847
	H26	H	0.110769	0.346171	0.786287
	H27	H	0.898325	0.659156	0.784671
	H28	H	0.225706	0.897353	0.348821
	H29	H	0.224733	0.101903	0.667574
	H30	H	0.789008	0.101899	0.347973
	H31	H	0.784278	0.896775	0.665011
	H32	H	0.348693	0.226846	0.896734
	H33	H	0.662093	0.221891	0.110590
	H34	H	0.348502	0.774631	0.118517
	H35	H	0.662351	0.780165	0.901019
	H36	H	0.346737	0.892381	0.232063
	H37	H	0.662341	0.104441	0.226296
	H38	H	0.347073	0.106007	0.784981
	H39	H	0.662869	0.897303	0.786733
	H40	H	0.903770	0.221350	0.349253
	H41	H	0.112137	0.221731	0.666806
	H42	H	0.114836	0.776991	0.351880
	H43	H	0.901205	0.779517	0.665498
	H44	H	0.228090	0.346455	0.900820
	H45	H	0.230162	0.658891	0.116860
	H46	H	0.784533	0.345788	0.111480
	H47	H	0.783374	0.660524	0.902717
	H48	H	0.421212	0.111443	0.597093
	H49	H	0.589779	0.890329	0.598013
	H50	H	0.594434	0.112352	0.420741
	H51	H	0.407673	0.888929	0.423712
	H52	H	0.597130	0.413361	0.122989
	H53	H	0.605318	0.592338	0.891155
	H54	H	0.419576	0.595507	0.120925
	H55	H	0.412093	0.413893	0.893510
	H56	H	0.121872	0.590282	0.416112
	H57	H	0.898513	0.584186	0.588449
	H58	H	0.122844	0.413315	0.603000
	H59	H	0.893105	0.415880	0.412671
	H60	H	0.121744	0.407042	0.596898
	H61	H	0.889995	0.588201	0.608405
	H62	H	0.119066	0.593553	0.425219
	H63	H	0.891673	0.403804	0.420541
	H64	H	0.413839	0.585137	0.120056
	H65	H	0.588622	0.583891	0.899853
	H66	H	0.590367	0.412267	0.120859
	H67	H	0.417863	0.416942	0.896606
	H68	H	0.600753	0.116282	0.416293
	H69	H	0.596947	0.889527	0.592064
	H70	H	0.415307	0.112355	0.591979
	H71	H	0.417260	0.887740	0.409304
	H72	H	0.919110	0.614787	0.096953
	H73	H	0.095136	0.392478	0.092771
	H74	H	0.086975	0.611091	0.924452
	H75	H	0.916592	0.392176	0.918403
	H76	H	0.098566	0.914214	0.621409
	H77	H	0.093125	0.086048	0.397523
	H78	H	0.919650	0.092434	0.620446
	H79	H	0.916573	0.914788	0.395022
	H80	H	0.622098	0.095179	0.910179
	H81	H	0.391030	0.088778	0.092491
	H82	H	0.613277	0.917663	0.092240
	H83	H	0.393632	0.916176	0.924470
	H84	H	0.616462	0.915820	0.099435
	H85	H	0.390284	0.088862	0.096617
	H86	H	0.618169	0.099482	0.924123
	H87	H	0.391340	0.917057	0.916320
	H88	H	0.916091	0.096182	0.622782
	H89	H	0.090436	0.097889	0.394176
	H90	H	0.091092	0.915779	0.619004
	H91	H	0.921730	0.910438	0.395323
	H92	H	0.099496	0.615517	0.922768
	H93	H	0.094828	0.389808	0.099727
	H94	H	0.911077	0.616811	0.096360
	H95	H	0.910082	0.389971	0.919796
	H96	H	0.414350	0.114442	0.599697
	H97	H	0.597792	0.886311	0.600866
	H98	H	0.592769	0.115544	0.412502
	H99	H	0.424162	0.894452	0.423851
	H100	H	0.594130	0.406829	0.123926
	H101	H	0.587807	0.603467	0.893309
	H102	H	0.425422	0.585958	0.115916
	H103	H	0.418648	0.409683	0.895102
	H104	H	0.117316	0.583874	0.423127
	H105	H	0.890170	0.603843	0.593136
	H106	H	0.119725	0.414720	0.595147
	H107	H	0.897692	0.415866	0.426218
	H108	H	0.915203	0.617846	0.103952
	H109	H	0.088436	0.393120	0.096750
	H110	H	0.090712	0.616022	0.912922
	H111	H	0.913028	0.388622	0.913656
	H112	H	0.093019	0.908180	0.621367
	H113	H	0.101835	0.093168	0.391847
	H114	H	0.914277	0.091166	0.622273
	H115	H	0.915933	0.908799	0.392707
	H116	H	0.615706	0.086057	0.919658
	H117	H	0.389733	0.092021	0.094364
	H118	H	0.617424	0.910988	0.093081
	H119	H	0.390517	0.909628	0.919685
	C120	C	0.384123	0.009094	0.629314
	C121	C	0.627151	0.992650	0.628780
	C122	C	0.627235	0.010638	0.385004
	C123	C	0.383652	0.994153	0.385830
	C124	C	0.624972	0.381808	0.016969
	C125	C	0.626738	0.625425	0.999286
	C126	C	0.385040	0.622530	0.015296
	C127	C	0.382540	0.380069	0.998736
	C128	C	0.014657	0.621846	0.388954
	C129	C	0.997447	0.624352	0.630670
	C130	C	0.015501	0.381249	0.628837
	C131	C	0.998657	0.379928	0.386418
	C132	C	0.883789	0.512180	0.130290
	C133	C	0.126781	0.494717	0.129900
	C134	C	0.125315	0.510760	0.887514
	C135	C	0.882075	0.494384	0.885512
	C136	C	0.127356	0.879955	0.516685
	C137	C	0.127491	0.123292	0.499605
	C138	C	0.885618	0.123359	0.516350
	C139	C	0.885595	0.879730	0.498924
	C140	C	0.514115	0.124682	0.884801
	C141	C	0.495412	0.121949	0.126762
	C142	C	0.512439	0.880024	0.129144
	C143	C	0.496483	0.881837	0.887716
	C144	C	0.381479	0.891090	0.690258
	C145	C	0.628630	0.111400	0.687697
	C146	C	0.629470	0.892720	0.324798
	C147	C	0.381051	0.112263	0.325221
	C148	C	0.682348	0.383900	0.896414
	C149	C	0.685770	0.627024	0.118800
	C150	C	0.324449	0.624236	0.896019
	C151	C	0.321659	0.376821	0.117693
	C152	C	0.895461	0.681890	0.387100
	C153	C	0.116843	0.684409	0.634973
	C154	C	0.894983	0.323136	0.628528
	C155	C	0.117966	0.319802	0.382818
	C156	C	0.894243	0.381766	0.685523
	C157	C	0.116708	0.625688	0.691226
	C158	C	0.894766	0.623487	0.330013
	C159	C	0.117400	0.377380	0.324680
	C160	C	0.380640	0.683402	0.896637
	C161	C	0.629293	0.685839	0.117684
	C162	C	0.625705	0.324737	0.896678
	C163	C	0.378390	0.317744	0.116839
	C164	C	0.687231	0.892557	0.383237
	C165	C	0.686660	0.111465	0.629197
	C166	C	0.323980	0.890926	0.631679
	C167	C	0.324247	0.112807	0.384481
	C168	C	0.882495	0.393004	0.189436
	C169	C	0.130280	0.612419	0.191303
	C170	C	0.128149	0.393057	0.826792
	C171	C	0.880428	0.612324	0.825044
	C172	C	0.187167	0.878163	0.397201
	C173	C	0.185807	0.122350	0.619768
	C174	C	0.828299	0.122245	0.396067
	C175	C	0.824770	0.877981	0.617917
	C176	C	0.395335	0.185330	0.880657
	C177	C	0.614857	0.181639	0.128833
	C178	C	0.395149	0.816474	0.134776
	C179	C	0.615183	0.820848	0.883811
	C180	C	0.394388	0.874904	0.191685
	C181	C	0.614976	0.123385	0.186243
	C182	C	0.394786	0.125747	0.824639
	C183	C	0.615565	0.879110	0.826865
	C184	C	0.885079	0.181465	0.396526
	C185	C	0.129864	0.181938	0.619170
	C186	C	0.131614	0.818484	0.398483
	C187	C	0.882700	0.819817	0.618050
	C188	C	0.186706	0.393252	0.884093
	C189	C	0.188892	0.612152	0.133790
	C190	C	0.824346	0.393227	0.131021
	C191	C	0.823210	0.613306	0.883934
	C192	C	0.409852	0.091602	0.603590
	C193	C	0.602053	0.910282	0.604124
	C194	C	0.602839	0.093039	0.409234
	C195	C	0.409093	0.911828	0.411456
	C196	C	0.600735	0.404322	0.100816
	C197	C	0.601303	0.600282	0.916296
	C198	C	0.411673	0.596507	0.097543
	C199	C	0.408471	0.406023	0.916407
	C200	C	0.097894	0.596361	0.414109
	C201	C	0.914613	0.599361	0.604115
	C202	C	0.099291	0.404807	0.605270
	C203	C	0.915804	0.404720	0.412301
	C204	C	0.908263	0.594756	0.106203
	C205	C	0.100373	0.413167	0.103768
	C206	C	0.099797	0.592815	0.913026
	C207	C	0.906391	0.411742	0.910433
	C208	C	0.101477	0.905361	0.599097
	C209	C	0.102502	0.099340	0.416272
	C210	C	0.909557	0.099914	0.600217
	C211	C	0.910685	0.904122	0.415958
	C212	C	0.597046	0.100279	0.910530
	C213	C	0.411906	0.096953	0.101575
	C214	C	0.594269	0.906980	0.102466
	C215	C	0.413528	0.907065	0.913189
	Zn216	Zn	0.505142	0.001254	0.758200
	Zn217	Zn	0.503890	0.002037	0.256527
	Zn218	Zn	0.754209	0.504157	0.008236
	Zn219	Zn	0.255504	0.502853	0.007947
	Zn220	Zn	0.007562	0.750961	0.508820
	Zn221	Zn	0.007344	0.251875	0.507930
	Zn222	Zn	0.005401	0.502620	0.757307
	Zn223	Zn	0.006197	0.502490	0.259402
	Zn224	Zn	0.504124	0.752544	0.006763
	Zn225	Zn	0.504042	0.252093	0.007321
	Zn226	Zn	0.756823	0.001379	0.506863
	Zn227	Zn	0.254838	0.001424	0.507863
	N228	N	0.418245	0.965816	0.688709
	N229	N	0.592726	0.036337	0.687836
	N230	N	0.592574	0.967110	0.325885
	N231	N	0.416867	0.037219	0.325864
	N232	N	0.682589	0.418303	0.972563
	N233	N	0.684329	0.590456	0.043887
	N234	N	0.326893	0.587439	0.970925
	N235	N	0.324179	0.414837	0.043302
	N236	N	0.971157	0.680890	0.423024
	N237	N	0.041545	0.683710	0.597981
	N238	N	0.971456	0.322232	0.594488
	N239	N	0.043302	0.321539	0.420759
	N240	N	0.970178	0.416738	0.686252
	N241	N	0.041312	0.589320	0.688682
	N242	N	0.970027	0.587103	0.331055
	N243	N	0.042193	0.414064	0.326671
	N244	N	0.417139	0.682762	0.972039
	N245	N	0.593467	0.685130	0.042087
	N246	N	0.591146	0.323097	0.972752
	N247	N	0.415172	0.319456	0.041848
	N248	N	0.686021	0.966734	0.420087
	N249	N	0.686088	0.036606	0.593556
	N250	N	0.325699	0.965264	0.594427
	N251	N	0.325544	0.038141	0.421264
	N252	N	0.918327	0.467945	0.189455
	N253	N	0.092634	0.538396	0.189041
	N254	N	0.090505	0.467033	0.829131
	N255	N	0.916155	0.537375	0.825683
	N256	N	0.184727	0.915570	0.471692
	N257	N	0.184308	0.086809	0.544440
	N258	N	0.828596	0.086855	0.471666
	N259	N	0.826323	0.914500	0.542818
	N260	N	0.470618	0.184824	0.917433
	N261	N	0.539332	0.180684	0.092601
	N262	N	0.469586	0.819352	0.096591
	N263	N	0.540164	0.822553	0.920941
	N264	N	0.468366	0.913616	0.188441
	N265	N	0.539524	0.087083	0.184909
	N266	N	0.469582	0.088800	0.827108
	N267	N	0.540891	0.916378	0.829338
	N268	N	0.919874	0.182297	0.472538
	N269	N	0.094591	0.182782	0.543203
	N270	N	0.095480	0.819207	0.473828
	N271	N	0.919847	0.820947	0.543398
	N272	N	0.184710	0.467246	0.921694
	N273	N	0.187089	0.537832	0.096598
	N274	N	0.824893	0.468152	0.095068
	N275	N	0.824061	0.538821	0.920774
	O276	O	0.540150	0.338434	0.303988
	H277	H	0.547271	0.333878	0.308493
	H278	H	0.572988	0.329521	0.292895
	O279	O	0.710559	0.454871	0.462467
	H280	H	0.713746	0.454219	0.456052
	H281	H	0.711335	0.477378	0.467073
	O282	O	1.288350	1.488209	0.487281
	H283	H	1.287670	1.482667	0.477559
	H284	H	1.288226	1.487527	0.478057
	O285	O	0.909334	-0.128306	-0.123439
	H286	H	0.919046	-0.129805	-0.106703
	H287	H	0.904215	-0.124526	-0.113988
	O288	O	0.017505	0.165145	0.196438
	H289	H	0.012068	0.187228	0.200763
	H290	H	0.001420	0.159725	0.179943
	O291	O	1.179827	0.997919	-0.158300
	H292	H	1.181727	1.015037	-0.162810
	H293	H	1.180049	1.010989	-0.146223
	O294	O	-0.208432	0.958240	-0.013178
	H295	H	-0.214988	0.938680	-0.019478
	H296	H	-0.206979	0.971136	-0.017087
	O297	O	0.538902	0.537812	0.295716
	H298	H	0.527038	0.534442	0.299984
	H299	H	0.570687	0.531469	0.291588
	O300	O	0.370128	0.541442	0.661925
	H301	H	0.372313	0.536967	0.651654
	H302	H	0.382667	0.561322	0.645806
	O303	O	0.657325	0.461788	0.603205
	H304	H	0.659937	0.479120	0.590997
	H305	H	0.665702	0.486128	0.608812
	O306	O	0.228487	1.053748	0.998926
	H307	H	0.229194	1.058187	0.993295
	H308	H	0.222776	1.061580	1.015513
	O309	O	0.096196	0.195737	-0.046643
	H310	H	0.113484	0.199001	-0.048472
	H311	H	0.102006	0.200061	-0.044023
	O312	O	0.319527	0.690518	0.322820
	H313	H	0.310908	0.642157	0.316693
	H314	H	0.357452	0.695934	0.316443
	O315	O	0.222412	0.216569	1.056338
	H316	H	0.216638	0.213574	1.100253
	H317	H	0.242792	0.243758	1.065496
	O318	O	0.290185	1.287453	-0.457324
	H319	H	0.276380	1.270197	-0.451951
	H320	H	0.283478	1.296618	-0.442607
	O321	O	0.649536	0.333093	0.475933
	H322	H	0.652642	0.322913	0.477984
	H323	H	0.633763	0.336082	0.471085
	O324	O	0.514849	0.696289	0.712452
	H325	H	0.509142	0.705450	0.698966
	H326	H	0.527306	0.710561	0.712573
	O327	O	0.394300	0.651206	1.562564
	H328	H	0.398449	0.646103	1.561364
	H329	H	0.378251	0.656499	1.545594
	O330	O	0.827101	-0.227049	-0.153700
	H331	H	0.819894	-0.235523	-0.129709
	H332	H	0.825850	-0.232373	-0.136183
	O333	O	0.989882	1.063208	1.213600
	H334	H	1.000529	1.063054	1.197622
	H335	H	0.997683	1.068590	1.224733
	O336	O	0.826889	-0.110054	1.194432
	H337	H	0.855162	-0.111586	1.201218
	H338	H	0.825740	-0.074361	1.197152
	O339	O	0.797839	0.209773	0.802846
	H340	H	0.795662	0.228062	0.778057
	H341	H	0.788925	0.184305	0.787521
	O342	O	0.721997	0.425536	0.329422
	H343	H	0.736553	0.401963	0.333232
	H344	H	0.726819	0.409903	0.320793
	O345	O	-0.005694	0.222500	-0.178438
	H346	H	-0.003290	0.235449	-0.196616
	H347	H	-0.016105	0.227411	-0.176361
	O348	O	1.211136	0.210783	1.204461
	H349	H	1.226449	0.173665	1.217111
	H350	H	1.169930	0.217415	1.220782
	O351	O	0.715114	0.714336	-0.333367
	H352	H	0.720429	0.715493	-0.305936
	H353	H	0.730376	0.732846	-0.358988
	O354	O	0.195302	0.858257	0.840912
	H355	H	0.174294	0.884279	0.833963
	H356	H	0.175458	0.872572	0.835256
	O357	O	1.014429	1.096168	0.810110
	H358	H	1.026003	1.112879	0.811105
	H359	H	1.013277	1.099525	0.805766
	O360	O	0.289421	0.528787	0.293623
	H361	H	0.298576	0.507491	0.283732
	H362	H	0.281390	0.515404	0.268753
	O363	O	0.539879	0.303098	0.504605
	H364	H	0.528470	0.308436	0.501887
	H365	H	0.531719	0.305154	0.487591
	O366	O	0.933906	-0.068796	0.835727
	H367	H	0.948111	-0.063742	0.825891
	H368	H	0.943509	-0.086386	0.848563
	O369	O	0.747878	0.733115	0.269111
	H370	H	0.748879	0.732934	0.264717
	H371	H	0.762928	0.749858	0.260077
	O372	O	0.777272	0.228329	0.233680
	H373	H	0.794119	0.222053	0.231982
	H374	H	0.796919	0.197869	0.210517
	O375	O	-0.209761	1.035433	0.793156
	H376	H	-0.211610	1.028810	0.782795
	H377	H	-0.212434	1.029272	0.782165
	O378	O	0.511592	0.501891	0.497286
	H379	H	0.508372	0.504961	0.492265
	H380	H	0.522298	0.497994	0.499813
	O381	O	1.070395	-0.001868	0.035446
	H382	H	1.074820	-0.002758	0.041811
	H383	H	1.066183	0.000865	0.028181
	O384	O	-0.007653	-0.023309	0.873922
	H385	H	0.002278	-0.016771	0.890270
	H386	H	0.002860	-0.039271	0.864619
	O387	O	-0.216273	1.226757	0.974304
	H388	H	-0.217384	1.226392	0.928486
	H389	H	-0.243629	1.250626	0.965574
	O390	O	0.225453	-0.218132	0.967375
	H391	H	0.217046	-0.201827	0.920018
	H392	H	0.261436	-0.252894	0.957461
	O393	O	1.092054	0.851103	0.127741
	H394	H	1.110538	0.836753	0.117312
	H395	H	1.092547	0.858110	0.108989
	O396	O	0.292508	0.710635	0.484172
	H397	H	0.261124	0.726163	0.479333
	H398	H	0.295938	0.703987	0.446345
	O399	O	-0.182178	1.067487	0.192981
	H400	H	-0.181231	1.072271	0.162802
	H401	H	-0.170925	1.064723	0.189816
	O402	O	-0.053253	-0.105703	1.036689
	H403	H	-0.047635	-0.100873	1.035848
	H404	H	-0.042779	-0.106582	1.027719
	O405	O	-0.207537	-0.212952	0.033236
	H406	H	-0.223462	-0.219752	0.044712
	H407	H	-0.212745	-0.219135	0.053556
	O408	O	0.377900	0.524777	0.688761
	H409	H	0.379437	0.532018	0.700660
	H410	H	0.382225	0.535149	0.678855
	O411	O	0.695833	0.399608	0.322866
	H412	H	0.693796	0.397997	0.357280
	H413	H	0.721399	0.381356	0.297472
	O414	O	0.307186	0.313775	0.706880
	H415	H	0.307332	0.329290	0.701553
	H416	H	0.320237	0.319979	0.703029
	O417	O	0.433854	0.406461	0.304194
	H418	H	0.457609	0.418299	0.311872
	H419	H	0.455969	0.376015	0.310441
	O420	O	0.688171	0.316488	0.696578
	H421	H	0.666923	0.324330	0.675395
	H422	H	0.673292	0.334429	0.684242
	O423	O	-0.480235	0.717593	0.493138
	H424	H	-0.476762	0.714113	0.486764
	H425	H	-0.493023	0.713169	0.489115
	O426	O	0.942456	1.225983	1.061203
	H427	H	0.969766	1.231741	1.033979
	H428	H	0.904477	1.226495	1.038100
	O429	O	0.434222	0.329628	0.471083
	H430	H	0.423368	0.345170	0.480221
	H431	H	0.428912	0.320763	0.471685
	O432	O	1.100082	-0.105721	1.157648
	H433	H	1.098297	-0.101672	1.149679
	H434	H	1.118790	-0.109919	1.144382
	O435	O	0.217013	0.024775	0.221393
	H436	H	0.227780	0.017739	0.230073
	H437	H	0.235318	0.011767	0.220335
	O438	O	1.035634	-0.200092	0.149282
	H439	H	1.040949	-0.210789	0.140862
	H440	H	1.049896	-0.184980	0.149084
	O441	O	0.703766	0.522282	0.710112
	H442	H	0.704834	0.543110	0.712472
	H443	H	0.714818	0.511805	0.710480
	O444	O	0.060723	0.815207	0.804672
	H445	H	0.055538	0.806553	0.808426
	H446	H	0.044998	0.802962	0.806784
	O447	O	0.531767	0.480913	0.628075
	H448	H	0.514468	0.486728	0.616014
	H449	H	0.537650	0.493344	0.630649
	O450	O	0.506542	0.595426	0.558447
	H451	H	0.501802	0.591829	0.554586
	H452	H	0.500695	0.621112	0.566804
	O453	O	0.475827	0.294477	0.707671
	H454	H	0.480518	0.297888	0.717021
	H455	H	0.466722	0.296883	0.708836
	O456	O	0.702133	-0.334671	-0.479941
	H457	H	0.708190	-0.303225	-0.475719
	H458	H	0.686532	-0.334651	-0.510074
	O459	O	0.485404	0.711403	0.297547
	H460	H	0.486583	0.728814	0.285552
	H461	H	0.494104	0.701897	0.297033
	O462	O	0.162928	1.114136	-0.086670
	H463	H	0.159308	1.110430	-0.071662
	H464	H	0.171472	1.119133	-0.086931
	O465	O	0.885221	0.046219	0.039417
	H466	H	0.886147	0.064335	0.026739
	H467	H	0.878422	0.041728	0.033139
