data_Molecule from HDF5

_cell_length_a		16.224862
_cell_length_b		16.187083
_cell_length_c		16.116979
_cell_angle_alpha	90.622832
_cell_angle_beta	89.639862
_cell_angle_gamma	90.362880
_symmetry_space_group_name_H-M	'P 1'
_symmetry_Int_Tables_number		1

loop_
	_symmetry_equiv_pos_as_xyz
	x,y,z

loop_
	_atom_site_label
	_atom_site_type_symbol
	_atom_site_fract_x
	_atom_site_fract_y
	_atom_site_fract_z
	H0	H	0.402630	0.832338	0.713117
	H1	H	0.601801	0.162140	0.720266
	H2	H	0.601434	0.835020	0.286010
	H3	H	0.408410	0.164151	0.294451
	H4	H	0.718151	0.396327	0.837599
	H5	H	0.715863	0.600500	0.167732
	H6	H	0.290482	0.593391	0.837061
	H7	H	0.284724	0.396968	0.166632
	H8	H	0.838660	0.709306	0.407107
	H9	H	0.166352	0.718122	0.603449
	H10	H	0.839700	0.282544	0.605691
	H11	H	0.167383	0.283261	0.400895
	H12	H	0.838057	0.402601	0.717000
	H13	H	0.167967	0.601076	0.717724
	H14	H	0.839556	0.595577	0.293323
	H15	H	0.166586	0.398716	0.285782
	H16	H	0.405951	0.707700	0.836371
	H17	H	0.601684	0.715781	0.167013
	H18	H	0.602387	0.280970	0.838056
	H19	H	0.402210	0.286085	0.168631
	H20	H	0.715696	0.834303	0.398927
	H21	H	0.718623	0.162318	0.604393
	H22	H	0.283357	0.835675	0.603143
	H23	H	0.292152	0.163987	0.406265
	H24	H	0.902675	0.333991	0.216676
	H25	H	0.100407	0.663345	0.218039
	H26	H	0.101277	0.335234	0.785639
	H27	H	0.905960	0.663702	0.795538
	H28	H	0.217421	0.899375	0.336843
	H29	H	0.216696	0.102109	0.667418
	H30	H	0.790208	0.094955	0.337314
	H31	H	0.784329	0.898051	0.666101
	H32	H	0.338632	0.210381	0.904059
	H33	H	0.666737	0.216037	0.103283
	H34	H	0.337835	0.782776	0.103676
	H35	H	0.666905	0.783654	0.901493
	H36	H	0.338417	0.901161	0.218792
	H37	H	0.668348	0.098652	0.216526
	H38	H	0.338173	0.093107	0.792551
	H39	H	0.665166	0.895364	0.784386
	H40	H	0.905206	0.210445	0.338010
	H41	H	0.102423	0.216048	0.667556
	H42	H	0.101675	0.783667	0.337773
	H43	H	0.902837	0.787383	0.668505
	H44	H	0.213815	0.332979	0.901376
	H45	H	0.220215	0.661122	0.105656
	H46	H	0.785859	0.334326	0.102609
	H47	H	0.790337	0.662350	0.906658
	H48	H	0.410082	0.116084	0.598780
	H49	H	0.597013	0.878784	0.596601
	H50	H	0.591988	0.116571	0.409605
	H51	H	0.407457	0.882198	0.412846
	H52	H	0.601555	0.406396	0.122893
	H53	H	0.595918	0.588500	0.885417
	H54	H	0.409551	0.589716	0.120516
	H55	H	0.407384	0.406438	0.884848
	H56	H	0.124092	0.592719	0.402687
	H57	H	0.883263	0.590115	0.614746
	H58	H	0.123704	0.403338	0.601918
	H59	H	0.887453	0.409791	0.410117
	H60	H	0.118892	0.403338	0.586977
	H61	H	0.882175	0.606878	0.594310
	H62	H	0.122124	0.600131	0.415978
	H63	H	0.883467	0.399146	0.407335
	H64	H	0.410760	0.589165	0.120657
	H65	H	0.597444	0.590734	0.882783
	H66	H	0.590963	0.414600	0.116808
	H67	H	0.414145	0.400969	0.885167
	H68	H	0.600351	0.115168	0.418056
	H69	H	0.589205	0.881393	0.593697
	H70	H	0.409481	0.116475	0.599461
	H71	H	0.406334	0.878815	0.407746
	H72	H	0.908861	0.616684	0.098241
	H73	H	0.092639	0.379667	0.098683
	H74	H	0.105060	0.617254	0.917703
	H75	H	0.908299	0.379462	0.910286
	H76	H	0.094962	0.917166	0.619317
	H77	H	0.093896	0.097774	0.383157
	H78	H	0.910736	0.087436	0.618928
	H79	H	0.901679	0.901707	0.381037
	H80	H	0.619762	0.092049	0.911990
	H81	H	0.384539	0.088614	0.106799
	H82	H	0.620257	0.907343	0.095465
	H83	H	0.383470	0.904359	0.904802
	H84	H	0.618506	0.904827	0.092305
	H85	H	0.383639	0.099252	0.099041
	H86	H	0.619332	0.087887	0.914383
	H87	H	0.382841	0.894891	0.910231
	H88	H	0.912290	0.091994	0.620913
	H89	H	0.105496	0.090850	0.382139
	H90	H	0.085904	0.906493	0.618452
	H91	H	0.912825	0.910409	0.386988
	H92	H	0.099709	0.619321	0.904349
	H93	H	0.089428	0.382423	0.091778
	H94	H	0.907721	0.616936	0.100387
	H95	H	0.910357	0.379992	0.908418
	H96	H	0.411473	0.115595	0.599049
	H97	H	0.596294	0.881573	0.588782
	H98	H	0.603162	0.120073	0.406649
	H99	H	0.412846	0.880995	0.408752
	H100	H	0.588832	0.400467	0.121246
	H101	H	0.599299	0.587097	0.884760
	H102	H	0.410758	0.590772	0.120065
	H103	H	0.406253	0.397480	0.881888
	H104	H	0.118101	0.585096	0.414952
	H105	H	0.891642	0.582635	0.590522
	H106	H	0.117888	0.416095	0.595663
	H107	H	0.887200	0.401697	0.418955
	H108	H	0.909480	0.616288	0.100200
	H109	H	0.097126	0.379764	0.092207
	H110	H	0.090565	0.613562	0.916000
	H111	H	0.911460	0.381350	0.910810
	H112	H	0.099008	0.905211	0.623138
	H113	H	0.095017	0.085340	0.386442
	H114	H	0.907199	0.091453	0.621556
	H115	H	0.915156	0.896129	0.383501
	H116	H	0.619889	0.088178	0.909262
	H117	H	0.388080	0.087548	0.094079
	H118	H	0.617566	0.908875	0.091390
	H119	H	0.386143	0.904271	0.915237
	C120	C	0.380329	0.007087	0.625726
	C121	C	0.624234	0.988963	0.624347
	C122	C	0.625622	0.008107	0.381235
	C123	C	0.382201	0.989946	0.382488
	C124	C	0.623868	0.376356	0.011468
	C125	C	0.624684	0.619470	0.993569
	C126	C	0.382193	0.617576	0.010947
	C127	C	0.379953	0.374114	0.993426
	C128	C	0.012602	0.619467	0.383443
	C129	C	0.994201	0.622926	0.627637
	C130	C	0.011819	0.378261	0.625011
	C131	C	0.994404	0.375727	0.381660
	C132	C	0.879561	0.507673	0.127038
	C133	C	0.123718	0.489021	0.125020
	C134	C	0.125352	0.507700	0.881613
	C135	C	0.881968	0.489503	0.883339
	C136	C	0.123535	0.878989	0.511265
	C137	C	0.125895	0.121601	0.493476
	C138	C	0.882039	0.118369	0.511098
	C139	C	0.880357	0.875667	0.493263
	C140	C	0.511118	0.117043	0.883681
	C141	C	0.494193	0.121536	0.127443
	C142	C	0.510600	0.877340	0.123853
	C143	C	0.493138	0.873377	0.880013
	C144	C	0.381897	0.882435	0.677624
	C145	C	0.622398	0.112837	0.681885
	C146	C	0.621880	0.883943	0.324162
	C147	C	0.386888	0.114481	0.330125
	C148	C	0.680116	0.376954	0.887128
	C149	C	0.678737	0.619648	0.118160
	C150	C	0.327768	0.614000	0.886509
	C151	C	0.323211	0.377161	0.117415
	C152	C	0.888340	0.672666	0.386770
	C153	C	0.117562	0.679625	0.624120
	C154	C	0.888607	0.321345	0.624832
	C155	C	0.118180	0.320914	0.381742
	C156	C	0.887709	0.381210	0.680199
	C157	C	0.118356	0.621458	0.681165
	C158	C	0.888532	0.616060	0.330080
	C159	C	0.117720	0.378508	0.324399
	C160	C	0.384998	0.671083	0.886309
	C161	C	0.622003	0.676938	0.117827
	C162	C	0.622517	0.319454	0.887256
	C163	C	0.381960	0.322068	0.118572
	C164	C	0.678726	0.883719	0.380487
	C165	C	0.680673	0.112835	0.624508
	C166	C	0.322452	0.884159	0.622700
	C167	C	0.329025	0.114499	0.385851
	C168	C	0.881680	0.383578	0.180289
	C169	C	0.121726	0.613544	0.180848
	C170	C	0.121947	0.384067	0.824080
	C171	C	0.885405	0.613833	0.831081
	C172	C	0.179257	0.879835	0.386566
	C173	C	0.179999	0.121681	0.618015
	C174	C	0.827696	0.115578	0.386757
	C175	C	0.823443	0.878771	0.617098
	C176	C	0.387310	0.171979	0.885304
	C177	C	0.617953	0.177485	0.123414
	C178	C	0.387128	0.821254	0.123230
	C179	C	0.616941	0.819516	0.880888
	C180	C	0.387266	0.880365	0.180440
	C181	C	0.618669	0.119403	0.180163
	C182	C	0.387302	0.114011	0.829391
	C183	C	0.616334	0.875625	0.822967
	C184	C	0.885180	0.172934	0.387220
	C185	C	0.122733	0.178043	0.618169
	C186	C	0.121948	0.821905	0.387066
	C187	C	0.882275	0.823694	0.618449
	C188	C	0.177789	0.383014	0.881745
	C189	C	0.181161	0.612392	0.124830
	C190	C	0.823570	0.383755	0.123661
	C191	C	0.827630	0.613172	0.886660
	C192	C	0.403596	0.093393	0.605059
	C193	C	0.601062	0.902959	0.600167
	C194	C	0.604707	0.094727	0.404568
	C195	C	0.402816	0.903139	0.403483
	C196	C	0.600567	0.400280	0.098015
	C197	C	0.603606	0.595699	0.906980
	C198	C	0.404037	0.596318	0.097936
	C199	C	0.402745	0.395346	0.906388
	C200	C	0.099084	0.598649	0.404883
	C201	C	0.907809	0.600127	0.606472
	C202	C	0.097829	0.401076	0.601843
	C203	C	0.908355	0.397306	0.405259
	C204	C	0.901895	0.594262	0.106058
	C205	C	0.099994	0.402931	0.101316
	C206	C	0.104715	0.594369	0.905543
	C207	C	0.903526	0.402602	0.903910
	C208	C	0.100175	0.902770	0.597850
	C209	C	0.104600	0.098096	0.406724
	C210	C	0.903791	0.096649	0.597915
	C211	C	0.903109	0.896441	0.406319
	C212	C	0.597114	0.095759	0.905569
	C213	C	0.407918	0.098570	0.106371
	C214	C	0.596635	0.900266	0.099963
	C215	C	0.406542	0.894947	0.903222
	Zn216	Zn	0.501954	-0.003462	0.754172
	Zn217	Zn	0.503757	-0.000863	0.255081
	Zn218	Zn	0.752711	0.498191	0.003408
	Zn219	Zn	0.252766	0.496888	0.002376
	Zn220	Zn	0.002120	0.749162	0.503515
	Zn221	Zn	0.003543	0.247732	0.503533
	Zn222	Zn	0.003467	0.499733	0.755302
	Zn223	Zn	0.002247	0.498612	0.254575
	Zn224	Zn	0.502553	0.746396	0.001941
	Zn225	Zn	0.502152	0.247585	0.003234
	Zn226	Zn	0.753021	-0.002504	0.501515
	Zn227	Zn	0.253009	0.000135	0.502898
	N228	N	0.417278	0.959915	0.679685
	N229	N	0.588243	0.034786	0.682263
	N230	N	0.589720	0.962442	0.324264
	N231	N	0.419235	0.036075	0.327820
	N232	N	0.681145	0.411605	0.965459
	N233	N	0.680624	0.584488	0.040051
	N234	N	0.325600	0.581626	0.965313
	N235	N	0.322006	0.409051	0.038635
	N236	N	0.966563	0.675070	0.419353
	N237	N	0.039265	0.680787	0.591869
	N238	N	0.966664	0.319370	0.591100
	N239	N	0.040577	0.319093	0.416692
	N240	N	0.965470	0.415890	0.680770
	N241	N	0.040648	0.586801	0.683535
	N242	N	0.966611	0.583467	0.327881
	N243	N	0.039810	0.411652	0.323988
	N244	N	0.418193	0.673233	0.964628
	N245	N	0.589192	0.677212	0.039320
	N246	N	0.588289	0.319065	0.965619
	N247	N	0.416594	0.319907	0.040308
	N248	N	0.681313	0.961778	0.415272
	N249	N	0.681867	0.035015	0.589242
	N250	N	0.321184	0.962762	0.591211
	N251	N	0.326038	0.036052	0.417917
	N252	N	0.915878	0.461497	0.182585
	N253	N	0.086755	0.535806	0.180973
	N254	N	0.090209	0.462679	0.823763
	N255	N	0.918780	0.535799	0.828795
	N256	N	0.180393	0.914577	0.464983
	N257	N	0.182263	0.087432	0.539424
	N258	N	0.825666	0.082549	0.464875
	N259	N	0.822138	0.910370	0.538109
	N260	N	0.465320	0.174182	0.918407
	N261	N	0.539500	0.179272	0.091479
	N262	N	0.464861	0.819276	0.088880
	N263	N	0.539309	0.818126	0.915787
	N264	N	0.465223	0.914552	0.180939
	N265	N	0.540944	0.085076	0.182544
	N266	N	0.464994	0.080462	0.828069
	N267	N	0.538108	0.908219	0.822184
	N268	N	0.918277	0.174878	0.465717
	N269	N	0.090121	0.178325	0.539691
	N270	N	0.087897	0.821371	0.465641
	N271	N	0.917093	0.821613	0.540372
	N272	N	0.179770	0.460799	0.917021
	N273	N	0.182702	0.534035	0.090861
	N274	N	0.821984	0.461949	0.091343
	N275	N	0.825495	0.534807	0.918503
	O276	O	0.594925	0.398478	0.407286
	H277	H	0.594559	0.384891	0.397635
	H278	H	0.600387	0.398538	0.417452
	O279	O	0.542968	0.481262	0.471559
	H280	H	0.549492	0.486014	0.487341
	H281	H	0.536841	0.477999	0.469727
	O282	O	0.968390	1.111222	-0.024856
	H283	H	0.979271	1.120876	-0.012337
	H284	H	0.976047	1.103019	-0.027618
	O285	O	0.999713	-0.001539	0.939021
	H286	H	1.004638	-0.000692	0.936303
	H287	H	1.004213	0.008865	0.934534
	O288	O	0.441940	0.472574	0.451385
	H289	H	0.435460	0.471063	0.441411
	H290	H	0.443904	0.477278	0.450061
	O291	O	0.504644	0.508947	0.469509
	H292	H	0.508579	0.498866	0.483278
	H293	H	0.506855	0.508424	0.475163
	O294	O	0.446141	0.401442	0.557858
	H295	H	0.446273	0.404806	0.564013
	H296	H	0.436654	0.390791	0.555456
	O297	O	-0.076264	0.047729	1.007575
	H298	H	-0.070204	0.054090	1.005860
	H299	H	-0.077436	0.053619	1.010384
	O300	O	0.533431	0.602631	0.526606
	H301	H	0.539146	0.601598	0.516439
	H302	H	0.532927	0.609550	0.526594
	O303	O	1.046856	1.096252	0.039718
	H304	H	1.036210	1.078201	0.050439
	H305	H	1.065224	1.109970	0.046438
	O306	O	-0.512204	1.495400	0.577525
	H307	H	-0.520871	1.488940	0.586581
	H308	H	-0.515489	1.486896	0.575796
	O309	O	0.549244	0.508877	0.553399
	H310	H	0.549119	0.508838	0.542467
	H311	H	0.558892	0.522339	0.561723
	O312	O	0.004434	-0.077730	-0.000600
	H313	H	0.013619	-0.080644	-0.017508
	H314	H	0.013325	-0.065088	-0.003260
	O315	O	1.112168	-0.060006	-0.111269
	H316	H	1.118740	-0.066442	-0.105006
	H317	H	1.113473	-0.067565	-0.117717
	O318	O	1.058039	0.952449	0.947454
	H319	H	1.055044	0.951952	0.954137
	H320	H	1.036751	0.957549	0.937903
	O321	O	-0.054295	0.014273	0.983996
	H322	H	-0.059310	0.019377	0.989155
	H323	H	-0.059124	0.008045	0.988376
	O324	O	0.410802	0.412323	0.548203
	H325	H	0.397326	0.415754	0.548869
	H326	H	0.412137	0.414635	0.548476
	O327	O	0.053909	-0.034322	0.055028
	H328	H	0.051906	-0.042562	0.046752
	H329	H	0.059417	-0.043905	0.046632
	O330	O	0.522112	0.535833	0.518166
	H331	H	0.527245	0.534985	0.517818
	H332	H	0.529620	0.542175	0.508545
	O333	O	-0.006208	0.938281	1.078576
	H334	H	-0.005171	0.932514	1.074529
	H335	H	-0.012044	0.932793	1.078891
	O336	O	-0.066943	-0.081938	-0.029248
	H337	H	-0.072702	-0.079837	-0.026010
	H338	H	-0.072595	-0.089239	-0.030804
	O339	O	0.508200	0.513664	0.461460
	H340	H	0.502336	0.499611	0.467538
	H341	H	0.515885	0.517756	0.459381
	O342	O	0.997648	1.076671	1.051130
	H343	H	1.001156	1.080646	1.052122
	H344	H	0.991945	1.074959	1.056469
	O345	O	0.980021	1.065784	0.074454
	H346	H	0.982593	1.077159	0.068249
	H347	H	0.981939	1.064152	0.074987
	O348	O	0.493276	0.463043	0.518102
	H349	H	0.498533	0.472973	0.522863
	H350	H	0.482584	0.475773	0.508103
	O351	O	0.542762	0.506406	0.611932
	H352	H	0.538404	0.505215	0.603209
	H353	H	0.531316	0.498490	0.602975
	O354	O	0.572727	0.542711	0.541256
	H355	H	0.588683	0.545129	0.543286
	H356	H	0.581340	0.534601	0.539724
	O357	O	1.050302	-0.001362	0.936618
	H358	H	1.043350	-0.000134	0.933092
	H359	H	1.061486	-0.004427	0.935415
	O360	O	0.548326	0.442192	0.406404
	H361	H	0.552934	0.439105	0.401128
	H362	H	0.538672	0.439618	0.395091
	O363	O	0.479066	0.617805	0.529023
	H364	H	0.494248	0.618567	0.541498
	H365	H	0.480886	0.623828	0.521001
	O366	O	0.981983	0.998729	0.936017
	H367	H	0.976858	1.005595	0.943651
	H368	H	0.987261	1.007651	0.928289
	O369	O	0.877098	-0.048580	0.954298
	H370	H	0.875027	-0.037423	0.954526
	H371	H	0.873201	-0.044268	0.955669
	O372	O	0.052154	-0.030104	0.006022
	H373	H	0.049494	-0.031686	-0.005746
	H374	H	0.056915	-0.033231	0.006493
	O375	O	1.037553	-0.012606	0.013580
	H376	H	1.022112	-0.019229	-0.001270
	H377	H	1.040176	-0.018234	0.019481
	O378	O	0.526540	0.520952	0.351101
	H379	H	0.509461	0.531449	0.365893
	H380	H	0.533198	0.516866	0.339931
	O381	O	0.458835	0.518165	0.546709
	H382	H	0.459551	0.519698	0.543843
	H383	H	0.447213	0.523716	0.547349
