data_Molecule from HDF5

_cell_length_a		16.303106
_cell_length_b		15.978913
_cell_length_c		16.252325
_cell_angle_alpha	87.983433
_cell_angle_beta	88.207437
_cell_angle_gamma	92.115878
_symmetry_space_group_name_H-M	'P 1'
_symmetry_Int_Tables_number		1

loop_
	_symmetry_equiv_pos_as_xyz
	x,y,z

loop_
	_atom_site_label
	_atom_site_type_symbol
	_atom_site_fract_x
	_atom_site_fract_y
	_atom_site_fract_z
	H0	H	0.395555	0.843373	0.732603
	H1	H	0.606640	0.176004	0.703143
	H2	H	0.608537	0.841026	0.293780
	H3	H	0.421676	0.173426	0.288728
	H4	H	0.727537	0.415456	0.842944
	H5	H	0.725955	0.608271	0.168930
	H6	H	0.305740	0.611238	0.838830
	H7	H	0.280185	0.392511	0.166290
	H8	H	0.841418	0.716197	0.408447
	H9	H	0.170744	0.724838	0.588825
	H10	H	0.846242	0.281688	0.613098
	H11	H	0.175556	0.309410	0.406607
	H12	H	0.848017	0.392594	0.733139
	H13	H	0.172907	0.611308	0.706351
	H14	H	0.844195	0.607195	0.288457
	H15	H	0.169805	0.417254	0.282177
	H16	H	0.425514	0.725153	0.841499
	H17	H	0.605306	0.716872	0.172171
	H18	H	0.602253	0.311489	0.837975
	H19	H	0.399993	0.282074	0.167840
	H20	H	0.717937	0.839702	0.410124
	H21	H	0.729287	0.169865	0.599182
	H22	H	0.281793	0.842992	0.617407
	H23	H	0.306806	0.175789	0.404341
	H24	H	0.896955	0.342867	0.229937
	H25	H	0.107682	0.677086	0.202321
	H26	H	0.106027	0.340170	0.794189
	H27	H	0.920469	0.672359	0.785562
	H28	H	0.228644	0.915693	0.343520
	H29	H	0.222694	0.107541	0.669473
	H30	H	0.801375	0.111500	0.340885
	H31	H	0.779686	0.891135	0.667152
	H32	H	0.342486	0.217250	0.910780
	H33	H	0.671548	0.225682	0.091086
	H34	H	0.346771	0.779667	0.118016
	H35	H	0.675634	0.809875	0.908919
	H36	H	0.348069	0.892768	0.235403
	H37	H	0.673639	0.111798	0.209191
	H38	H	0.345313	0.108308	0.790364
	H39	H	0.669832	0.916460	0.783382
	H40	H	0.925332	0.222678	0.339847
	H41	H	0.104550	0.218013	0.670809
	H42	H	0.103540	0.809850	0.337238
	H43	H	0.896859	0.778840	0.666869
	H44	H	0.218587	0.340049	0.907328
	H45	H	0.229019	0.671507	0.095168
	H46	H	0.782260	0.342695	0.116586
	H47	H	0.808137	0.675578	0.902854
	H48	H	0.413919	0.135052	0.613904
	H49	H	0.600477	0.882400	0.604578
	H50	H	0.602557	0.124014	0.408742
	H51	H	0.412669	0.888885	0.423837
	H52	H	0.589935	0.410837	0.122975
	H53	H	0.615276	0.607643	0.887770
	H54	H	0.414519	0.594439	0.123638
	H55	H	0.413386	0.418747	0.887238
	H56	H	0.124560	0.612684	0.403033
	H57	H	0.888675	0.583751	0.612955
	H58	H	0.127779	0.411631	0.595810
	H59	H	0.891688	0.410757	0.420936
	H60	H	0.125147	0.422040	0.594921
	H61	H	0.887970	0.600776	0.596508
	H62	H	0.122430	0.605543	0.400085
	H63	H	0.892398	0.414595	0.420174
	H64	H	0.406363	0.586910	0.123207
	H65	H	0.608338	0.607390	0.890611
	H66	H	0.597298	0.410370	0.125134
	H67	H	0.416273	0.415779	0.886790
	H68	H	0.613215	0.126332	0.410668
	H69	H	0.580933	0.887524	0.608435
	H70	H	0.432979	0.120744	0.590872
	H71	H	0.414902	0.888144	0.423733
	H72	H	0.918606	0.624985	0.087131
	H73	H	0.092353	0.386256	0.102223
	H74	H	0.107442	0.624084	0.910322
	H75	H	0.914244	0.391104	0.930826
	H76	H	0.085457	0.907679	0.621872
	H77	H	0.105505	0.110244	0.388852
	H78	H	0.908473	0.087008	0.622324
	H79	H	0.921008	0.919474	0.390371
	H80	H	0.626098	0.113355	0.902237
	H81	H	0.392225	0.084721	0.104839
	H82	H	0.628786	0.923337	0.113488
	H83	H	0.393358	0.913498	0.923951
	H84	H	0.630644	0.902357	0.097944
	H85	H	0.389462	0.093450	0.104479
	H86	H	0.624441	0.109232	0.903679
	H87	H	0.392486	0.915715	0.921303
	H88	H	0.916846	0.086729	0.620643
	H89	H	0.116314	0.113655	0.385885
	H90	H	0.098609	0.908976	0.625082
	H91	H	0.910842	0.907688	0.382957
	H92	H	0.117186	0.629776	0.901516
	H93	H	0.085712	0.389995	0.098123
	H94	H	0.912319	0.630451	0.096345
	H95	H	0.904694	0.384302	0.919053
	H96	H	0.401726	0.128345	0.583643
	H97	H	0.589391	0.890382	0.590058
	H98	H	0.609847	0.127903	0.401099
	H99	H	0.413108	0.889028	0.425334
	H100	H	0.595368	0.416946	0.122131
	H101	H	0.611915	0.614964	0.886163
	H102	H	0.415773	0.584591	0.119364
	H103	H	0.412297	0.414959	0.884636
	H104	H	0.125957	0.610721	0.397235
	H105	H	0.895498	0.580291	0.592349
	H106	H	0.128109	0.417248	0.605254
	H107	H	0.890890	0.412134	0.418140
	H108	H	0.923377	0.627174	0.097768
	H109	H	0.093399	0.389520	0.093808
	H110	H	0.104544	0.626470	0.897186
	H111	H	0.919784	0.387640	0.915347
	H112	H	0.091737	0.919924	0.620115
	H113	H	0.113188	0.104203	0.388610
	H114	H	0.914406	0.094282	0.622734
	H115	H	0.905462	0.922400	0.386976
	H116	H	0.625729	0.109212	0.899233
	H117	H	0.393190	0.090201	0.097810
	H118	H	0.620436	0.925468	0.087592
	H119	H	0.391349	0.912916	0.920676
	C120	C	0.382008	0.018136	0.630901
	C121	C	0.624262	0.997141	0.624610
	C122	C	0.633036	0.015721	0.381879
	C123	C	0.390568	0.998775	0.389864
	C124	C	0.625584	0.389187	0.014309
	C125	C	0.636155	0.634425	0.997240
	C126	C	0.389584	0.624331	0.013687
	C127	C	0.381863	0.382050	0.994877
	C128	C	0.015518	0.633678	0.376805
	C129	C	0.999035	0.624278	0.623233
	C130	C	0.018903	0.381769	0.631593
	C131	C	1.000159	0.389488	0.386662
	C132	C	0.883496	0.517480	0.128403
	C133	C	0.124782	0.498549	0.122245
	C134	C	0.133900	0.516097	0.879292
	C135	C	0.890332	0.497958	0.887251
	C136	C	0.124698	0.889085	0.513534
	C137	C	0.135539	0.133778	0.496806
	C138	C	0.889444	0.124437	0.513724
	C139	C	0.880341	0.881341	0.495036
	C140	C	0.516690	0.134450	0.878602
	C141	C	0.500118	0.124684	0.124721
	C142	C	0.518906	0.881571	0.133460
	C143	C	0.500197	0.890241	0.888521
	C144	C	0.377893	0.893295	0.692742
	C145	C	0.626493	0.124730	0.670779
	C146	C	0.628629	0.890880	0.329919
	C147	C	0.398994	0.123983	0.328645
	C148	C	0.686068	0.395477	0.891134
	C149	C	0.687955	0.628289	0.120434
	C150	C	0.341225	0.628698	0.888991
	C151	C	0.320776	0.375945	0.117580
	C152	C	0.891292	0.682224	0.385196
	C153	C	0.122059	0.685332	0.612787
	C154	C	0.895817	0.320586	0.633031
	C155	C	0.125145	0.342674	0.386071
	C156	C	0.896575	0.375464	0.692805
	C157	C	0.123174	0.628673	0.671485
	C158	C	0.892827	0.628352	0.325089
	C159	C	0.122145	0.396414	0.324243
	C160	C	0.400844	0.685360	0.890211
	C161	C	0.628230	0.682900	0.121936
	C162	C	0.624038	0.343452	0.888514
	C163	C	0.380232	0.321000	0.118520
	C164	C	0.683253	0.890046	0.387779
	C165	C	0.687621	0.121433	0.619271
	C166	C	0.321141	0.892993	0.635661
	C167	C	0.342005	0.125282	0.386252
	C168	C	0.879132	0.392776	0.190281
	C169	C	0.126894	0.625691	0.169214
	C170	C	0.127391	0.390191	0.829328
	C171	C	0.898392	0.623187	0.825961
	C172	C	0.186793	0.895258	0.391220
	C173	C	0.186395	0.128376	0.620443
	C174	C	0.838550	0.128804	0.389851
	C175	C	0.819677	0.874660	0.617870
	C176	C	0.392318	0.183518	0.887136
	C177	C	0.623203	0.185634	0.114554
	C178	C	0.396025	0.819492	0.136285
	C179	C	0.625290	0.843031	0.888292
	C180	C	0.396680	0.875593	0.195107
	C181	C	0.624193	0.128836	0.173368
	C182	C	0.393650	0.129096	0.827326
	C183	C	0.622287	0.896537	0.825924
	C184	C	0.899833	0.184462	0.389466
	C185	C	0.127887	0.183575	0.621103
	C186	C	0.124245	0.842644	0.387985
	C187	C	0.877848	0.818450	0.617833
	C188	C	0.183585	0.390065	0.885811
	C189	C	0.187318	0.622949	0.115886
	C190	C	0.822382	0.392490	0.133562
	C191	C	0.842594	0.624767	0.884386
	C192	C	0.408470	0.105370	0.603797
	C193	C	0.598000	0.909560	0.606362
	C194	C	0.614333	0.103312	0.400974
	C195	C	0.408295	0.911366	0.416594
	C196	C	0.601287	0.407249	0.100995
	C197	C	0.617393	0.615915	0.910528
	C198	C	0.406899	0.596691	0.099989
	C199	C	0.406835	0.408790	0.908645
	C200	C	0.102005	0.615414	0.394830
	C201	C	0.912933	0.596444	0.605926
	C202	C	0.104791	0.409152	0.606038
	C203	C	0.913991	0.407169	0.412309
	C204	C	0.910239	0.604965	0.101486
	C205	C	0.098236	0.411242	0.103654
	C206	C	0.115345	0.603889	0.897342
	C207	C	0.907664	0.410388	0.913975
	C208	C	0.099424	0.906914	0.600036
	C209	C	0.117373	0.115028	0.410278
	C210	C	0.907702	0.097241	0.599550
	C211	C	0.905359	0.908737	0.409038
	C212	C	0.603011	0.116265	0.896324
	C213	C	0.414007	0.097466	0.107406
	C214	C	0.604469	0.909121	0.107382
	C215	C	0.414642	0.908501	0.914480
	Zn216	Zn	0.506080	0.010096	0.753423
	Zn217	Zn	0.510656	0.005833	0.258067
	Zn218	Zn	0.758936	0.508395	0.006260
	Zn219	Zn	0.256473	0.504689	0.002363
	Zn220	Zn	0.004673	0.757152	0.502273
	Zn221	Zn	0.011435	0.257754	0.506696
	Zn222	Zn	0.010278	0.505516	0.756279
	Zn223	Zn	0.006016	0.509875	0.252550
	Zn224	Zn	0.510518	0.757740	0.008461
	Zn225	Zn	0.506511	0.258028	0.003360
	Zn226	Zn	0.754935	0.004525	0.504810
	Zn227	Zn	0.258543	0.008904	0.507737
	N228	N	0.415153	0.972211	0.689760
	N229	N	0.587872	0.046469	0.674389
	N230	N	0.598220	0.970092	0.325880
	N231	N	0.428575	0.044370	0.330766
	N232	N	0.687235	0.423093	0.970420
	N233	N	0.693295	0.599102	0.041784
	N234	N	0.334316	0.591295	0.966776
	N235	N	0.321786	0.413357	0.039694
	N236	N	0.968742	0.686325	0.416384
	N237	N	0.043719	0.682861	0.583759
	N238	N	0.973170	0.324026	0.595819
	N239	N	0.048348	0.338314	0.424383
	N240	N	0.974137	0.412720	0.692043
	N241	N	0.045576	0.591311	0.677894
	N242	N	0.971093	0.599102	0.319565
	N243	N	0.043295	0.424758	0.324537
	N244	N	0.430199	0.682662	0.968759
	N245	N	0.596753	0.687002	0.044323
	N246	N	0.586858	0.339448	0.965925
	N247	N	0.417678	0.324649	0.041297
	N248	N	0.686438	0.968798	0.419171
	N249	N	0.686310	0.041038	0.591296
	N250	N	0.323637	0.971544	0.597849
	N251	N	0.336585	0.046382	0.423638
	N252	N	0.916475	0.471740	0.187238
	N253	N	0.088503	0.547311	0.173459
	N254	N	0.097298	0.469518	0.824890
	N255	N	0.927391	0.543281	0.827660
	N256	N	0.186900	0.923440	0.470408
	N257	N	0.191654	0.098288	0.542225
	N258	N	0.831827	0.092180	0.468062
	N259	N	0.821198	0.913239	0.540628
	N260	N	0.469854	0.187297	0.918024
	N261	N	0.545006	0.183303	0.085101
	N262	N	0.473264	0.822797	0.098857
	N263	N	0.548660	0.839088	0.926793
	N264	N	0.473948	0.913494	0.193417
	N265	N	0.546624	0.091342	0.179774
	N266	N	0.471789	0.099455	0.821626
	N267	N	0.543523	0.925095	0.825882
	N268	N	0.930855	0.181782	0.467327
	N269	N	0.096876	0.187152	0.543240
	N270	N	0.086115	0.838580	0.464956
	N271	N	0.914953	0.822346	0.540327
	N272	N	0.187951	0.469344	0.916086
	N273	N	0.186229	0.542826	0.087530
	N274	N	0.824980	0.471079	0.095733
	N275	N	0.837363	0.546016	0.921954
	O276	O	0.515505	0.546272	0.413875
	H277	H	0.522283	0.557710	0.407988
	H278	H	0.495215	0.535060	0.421626
	O279	O	0.511374	0.551824	0.539168
	H280	H	0.523390	0.544226	0.531193
	H281	H	0.507313	0.551395	0.527991
	O282	O	1.021500	0.891983	-0.118955
	H283	H	1.031502	0.900565	-0.115907
	H284	H	1.019410	0.900268	-0.117229
	O285	O	1.090975	-0.034898	0.968849
	H286	H	1.102231	-0.029958	0.947761
	H287	H	1.081023	-0.046336	0.983867
	O288	O	-0.054412	0.045382	0.037621
	H289	H	-0.059953	0.036177	0.032181
	H290	H	-0.067063	0.029581	0.043851
	O291	O	0.360597	0.562360	0.510949
	H292	H	0.364588	0.562631	0.510433
	H293	H	0.341597	0.554347	0.513578
	O294	O	0.564301	0.439626	0.516278
	H295	H	0.568807	0.442578	0.517760
	H296	H	0.572219	0.438122	0.516713
	O297	O	-0.148659	-0.103245	1.091284
	H298	H	-0.154499	-0.113166	1.085825
	H299	H	-0.161035	-0.115674	1.093158
	O300	O	0.529024	0.539964	0.521575
	H301	H	0.525369	0.541986	0.523560
	H302	H	0.525302	0.553365	0.515226
	O303	O	1.121666	1.037460	0.015341
	H304	H	1.125252	1.037667	0.025136
	H305	H	1.113285	1.041824	0.012313
	O306	O	-0.605263	1.427193	0.654818
	H307	H	-0.626533	1.414500	0.667989
	H308	H	-0.603630	1.416152	0.646907
	O309	O	0.512180	0.555797	0.443489
	H310	H	0.503684	0.556266	0.441934
	H311	H	0.502391	0.547107	0.444718
	O312	O	0.103464	-0.048663	-0.141648
	H313	H	0.100739	-0.038968	-0.143907
	H314	H	0.102327	-0.053783	-0.137086
	O315	O	0.901159	-0.120048	-0.019581
	H316	H	0.916038	-0.126136	-0.014455
	H317	H	0.897110	-0.128943	-0.033885
	O318	O	0.866338	1.066737	1.107614
	H319	H	0.867348	1.057240	1.102234
	H320	H	0.862564	1.063591	1.104575
	O321	O	-0.123977	0.052413	0.849920
	H322	H	-0.112866	0.050205	0.850146
	H323	H	-0.126591	0.052806	0.843553
	O324	O	0.565912	0.469318	0.562456
	H325	H	0.585455	0.472949	0.571177
	H326	H	0.559833	0.479530	0.573744
	O327	O	0.082590	0.041808	0.035292
	H328	H	0.077490	0.049716	0.039482
	H329	H	0.085511	0.043119	0.034307
	O330	O	0.590407	0.529172	0.424426
	H331	H	0.593654	0.531310	0.426052
	H332	H	0.580382	0.532782	0.422597
	O333	O	-0.452210	0.412047	0.467329
	H334	H	-0.453479	0.428697	0.465026
	H335	H	-0.444612	0.408567	0.463015
	O336	O	-0.069654	0.034702	0.048832
	H337	H	-0.071830	0.036318	0.052227
	H338	H	-0.068761	0.033280	0.052908
	O339	O	0.430800	0.507129	0.482280
	H340	H	0.431622	0.490783	0.487921
	H341	H	0.424754	0.507527	0.495939
	O342	O	1.149693	0.919334	0.995161
	H343	H	1.151257	0.924803	0.988024
	H344	H	1.154452	0.917114	0.990531
	O345	O	0.972520	0.858815	0.050126
	H346	H	0.960653	0.856234	0.052471
	H347	H	0.950600	0.854468	0.052263
	O348	O	0.553934	0.524362	0.459998
	H349	H	0.563018	0.525834	0.452699
	H350	H	0.546149	0.526695	0.457846
	O351	O	0.438141	0.496498	0.478874
	H352	H	0.442694	0.502430	0.455549
	H353	H	0.427357	0.476903	0.480138
	O354	O	0.500976	0.556067	0.472051
	H355	H	0.497744	0.570269	0.455061
	H356	H	0.488375	0.541728	0.474120
	O357	O	1.109541	0.091391	1.089630
	H358	H	1.115456	0.105107	1.090496
	H359	H	1.098899	0.099764	1.106489
	O360	O	0.450405	0.498833	0.491290
	H361	H	0.448938	0.500441	0.506023
	H362	H	0.440267	0.493337	0.502674
	O363	O	1.090053	-0.038312	1.109143
	H364	H	1.087416	-0.050882	1.118480
	H365	H	1.090937	-0.040376	1.107362
	O366	O	0.963047	1.019652	1.158360
	H367	H	0.973712	1.009400	1.159126
	H368	H	0.954823	1.005035	1.170288
	O369	O	1.006261	0.124420	1.027943
	H370	H	1.004033	0.127001	1.030481
	H371	H	1.001921	0.125354	1.025648
	O372	O	-0.058246	0.130858	-0.067688
	H373	H	-0.067106	0.116321	-0.070343
	H374	H	-0.071805	0.140588	-0.083044
	O375	O	0.969890	-0.026274	-0.111319
	H376	H	0.970305	-0.021238	-0.104032
	H377	H	0.984024	-0.026054	-0.110618
	O378	O	0.394484	0.406744	0.525935
	H379	H	0.397800	0.407857	0.525522
	H380	H	0.398983	0.412859	0.518506
	O381	O	0.516748	0.532015	0.543809
	H382	H	0.524032	0.524598	0.557644
	H383	H	0.508674	0.526860	0.542007
