data_Molecule from HDF5

_cell_length_a		16.101314
_cell_length_b		16.111182
_cell_length_c		16.363324
_cell_angle_alpha	89.962100
_cell_angle_beta	90.358576
_cell_angle_gamma	90.047549
_symmetry_space_group_name_H-M	'P 1'
_symmetry_Int_Tables_number		1

loop_
	_symmetry_equiv_pos_as_xyz
	x,y,z

loop_
	_atom_site_label
	_atom_site_type_symbol
	_atom_site_fract_x
	_atom_site_fract_y
	_atom_site_fract_z
	H0	H	0.399931	0.833860	0.711890
	H1	H	0.604491	0.162348	0.711065
	H2	H	0.601565	0.833927	0.280194
	H3	H	0.401199	0.163078	0.279753
	H4	H	0.714533	0.400694	0.831389
	H5	H	0.720365	0.596862	0.157813
	H6	H	0.286142	0.597579	0.832693
	H7	H	0.289863	0.400357	0.159665
	H8	H	0.836230	0.707235	0.398500
	H9	H	0.168217	0.708814	0.593538
	H10	H	0.836146	0.283966	0.591448
	H11	H	0.168269	0.285298	0.399311
	H12	H	0.837950	0.393940	0.710290
	H13	H	0.165827	0.599522	0.711566
	H14	H	0.837690	0.597337	0.279049
	H15	H	0.166654	0.396733	0.280547
	H16	H	0.403247	0.712762	0.832071
	H17	H	0.602546	0.713017	0.158898
	H18	H	0.600677	0.282475	0.833055
	H19	H	0.404921	0.283560	0.158763
	H20	H	0.710891	0.830956	0.400084
	H21	H	0.715765	0.162597	0.593461
	H22	H	0.292585	0.830955	0.589929
	H23	H	0.288175	0.162998	0.397745
	H24	H	0.901812	0.333151	0.209431
	H25	H	0.103982	0.661744	0.211214
	H26	H	0.103155	0.333161	0.779686
	H27	H	0.900611	0.662217	0.777179
	H28	H	0.214373	0.899443	0.331295
	H29	H	0.218438	0.095256	0.658104
	H30	H	0.787082	0.093568	0.332067
	H31	H	0.787836	0.896990	0.658864
	H32	H	0.336562	0.211527	0.898151
	H33	H	0.668456	0.208848	0.093148
	H34	H	0.336335	0.786725	0.090665
	H35	H	0.668257	0.786988	0.900363
	H36	H	0.337426	0.898142	0.208541
	H37	H	0.665889	0.099791	0.212840
	H38	H	0.338086	0.101907	0.777591
	H39	H	0.667417	0.899252	0.782366
	H40	H	0.901963	0.211700	0.331721
	H41	H	0.101710	0.211723	0.658824
	H42	H	0.098351	0.783153	0.331327
	H43	H	0.905045	0.780627	0.658919
	H44	H	0.214652	0.331438	0.899966
	H45	H	0.214675	0.663312	0.092128
	H46	H	0.791174	0.332612	0.089578
	H47	H	0.789908	0.664333	0.896666
	H48	H	0.417553	0.112504	0.584342
	H49	H	0.590719	0.877856	0.597845
	H50	H	0.594117	0.115261	0.406109
	H51	H	0.410753	0.879158	0.396952
	H52	H	0.602381	0.417931	0.109367
	H53	H	0.586635	0.590767	0.881907
	H54	H	0.415248	0.597380	0.112120
	H55	H	0.405352	0.394817	0.875382
	H56	H	0.118783	0.587741	0.404458
	H57	H	0.885102	0.591321	0.578933
	H58	H	0.115044	0.408843	0.574659
	H59	H	0.883739	0.404538	0.401038
	H60	H	0.120570	0.416808	0.600355
	H61	H	0.885610	0.579499	0.589109
	H62	H	0.122107	0.587423	0.399626
	H63	H	0.883371	0.406054	0.399618
	H64	H	0.402918	0.594032	0.115164
	H65	H	0.596781	0.602375	0.876269
	H66	H	0.584229	0.400116	0.109670
	H67	H	0.400595	0.414142	0.879686
	H68	H	0.596517	0.117362	0.400355
	H69	H	0.587893	0.883134	0.583911
	H70	H	0.403938	0.116628	0.583459
	H71	H	0.410880	0.880489	0.403005
	H72	H	0.909533	0.616888	0.083601
	H73	H	0.093945	0.382375	0.082010
	H74	H	0.098650	0.620279	0.892111
	H75	H	0.912667	0.384139	0.911048
	H76	H	0.098713	0.891798	0.615222
	H77	H	0.100349	0.086962	0.379080
	H78	H	0.912726	0.088680	0.610044
	H79	H	0.908496	0.903965	0.380132
	H80	H	0.620352	0.086284	0.899172
	H81	H	0.381470	0.098352	0.086675
	H82	H	0.624687	0.896394	0.091365
	H83	H	0.386151	0.909118	0.907376
	H84	H	0.617151	0.909596	0.080396
	H85	H	0.385756	0.086307	0.085133
	H86	H	0.621834	0.095229	0.901235
	H87	H	0.383599	0.911958	0.895768
	H88	H	0.910397	0.094395	0.612407
	H89	H	0.088108	0.089471	0.381291
	H90	H	0.107280	0.909071	0.612186
	H91	H	0.906891	0.898423	0.378487
	H92	H	0.081618	0.611741	0.900954
	H93	H	0.103190	0.376557	0.090853
	H94	H	0.908330	0.618261	0.091917
	H95	H	0.899196	0.376763	0.899291
	H96	H	0.410662	0.118407	0.595534
	H97	H	0.601974	0.877063	0.588039
	H98	H	0.589496	0.115517	0.400886
	H99	H	0.405516	0.877797	0.400175
	H100	H	0.607903	0.394728	0.117933
	H101	H	0.602389	0.586893	0.878497
	H102	H	0.410315	0.585309	0.108956
	H103	H	0.419571	0.407800	0.883380
	H104	H	0.122635	0.592957	0.402413
	H105	H	0.880883	0.593209	0.592275
	H106	H	0.126134	0.391118	0.592339
	H107	H	0.882939	0.404142	0.399778
	H108	H	0.916478	0.615667	0.088985
	H109	H	0.090339	0.377199	0.094759
	H110	H	0.099409	0.614762	0.912621
	H111	H	0.917272	0.379624	0.892291
	H112	H	0.087265	0.906400	0.607402
	H113	H	0.096304	0.098111	0.376394
	H114	H	0.905783	0.088875	0.612021
	H115	H	0.902139	0.903028	0.378196
	H116	H	0.619095	0.088587	0.907058
	H117	H	0.381329	0.089297	0.095844
	H118	H	0.621390	0.914304	0.097517
	H119	H	0.380902	0.900006	0.899784
	C120	C	0.381761	0.006550	0.616354
	C121	C	0.623353	0.988670	0.617875
	C122	C	0.621662	0.006455	0.374566
	C123	C	0.380073	0.988732	0.372401
	C124	C	0.624893	0.376157	0.004091
	C125	C	0.625087	0.621238	0.986777
	C126	C	0.380104	0.620943	0.004239
	C127	C	0.380754	0.376670	0.987602
	C128	C	0.011373	0.618035	0.373488
	C129	C	0.993365	0.617632	0.615917
	C130	C	0.010965	0.376106	0.616509
	C131	C	0.992980	0.376122	0.373032
	C132	C	0.882238	0.507458	0.115916
	C133	C	0.124377	0.488165	0.117529
	C134	C	0.123103	0.506304	0.873873
	C135	C	0.880449	0.489297	0.871923
	C136	C	0.124493	0.874392	0.503501
	C137	C	0.124528	0.119916	0.486656
	C138	C	0.880236	0.118889	0.503485
	C139	C	0.878807	0.873215	0.486916
	C140	C	0.510874	0.119529	0.873834
	C141	C	0.492535	0.119664	0.117531
	C142	C	0.511210	0.877755	0.116874
	C143	C	0.493247	0.877522	0.873526
	C144	C	0.382053	0.882530	0.672559
	C145	C	0.623067	0.112857	0.672755
	C146	C	0.620218	0.882398	0.319341
	C147	C	0.381736	0.113661	0.317963
	C148	C	0.677798	0.379357	0.880547
	C149	C	0.681581	0.618128	0.109471
	C150	C	0.324159	0.618245	0.881553
	C151	C	0.327051	0.379761	0.110660
	C152	C	0.886163	0.671194	0.376900
	C153	C	0.118107	0.672204	0.613841
	C154	C	0.885999	0.320925	0.612749
	C155	C	0.118377	0.321893	0.377831
	C156	C	0.886756	0.375874	0.671586
	C157	C	0.116891	0.618133	0.673110
	C158	C	0.887148	0.616551	0.317410
	C159	C	0.117520	0.377198	0.318651
	C160	C	0.382469	0.675504	0.881203
	C161	C	0.623031	0.675628	0.109921
	C162	C	0.621303	0.320456	0.881548
	C163	C	0.384186	0.321500	0.110133
	C164	C	0.674436	0.880909	0.379141
	C165	C	0.678711	0.112956	0.614455
	C166	C	0.328281	0.881135	0.612112
	C167	C	0.325657	0.113731	0.376356
	C168	C	0.882818	0.382480	0.170745
	C169	C	0.123224	0.612904	0.172604
	C170	C	0.122449	0.382274	0.818265
	C171	C	0.881493	0.613499	0.816299
	C172	C	0.177565	0.878087	0.380158
	C173	C	0.180260	0.116162	0.609447
	C174	C	0.824889	0.114933	0.380713
	C175	C	0.825415	0.876235	0.610190
	C176	C	0.386174	0.174737	0.876670
	C177	C	0.618231	0.172870	0.114269
	C178	C	0.386203	0.823492	0.112471
	C179	C	0.618552	0.823697	0.878540
	C180	C	0.386656	0.878787	0.170974
	C181	C	0.617103	0.118593	0.173576
	C182	C	0.386816	0.119790	0.817166
	C183	C	0.618063	0.879501	0.819896
	C184	C	0.882250	0.173440	0.380556
	C185	C	0.122326	0.174140	0.609791
	C186	C	0.119497	0.820666	0.380057
	C187	C	0.883582	0.818348	0.610125
	C188	C	0.177976	0.381407	0.877905
	C189	C	0.178045	0.613761	0.113656
	C190	C	0.827729	0.382183	0.111654
	C191	C	0.826360	0.614386	0.875546
	C192	C	0.404047	0.093231	0.594245
	C193	C	0.600392	0.901750	0.596190
	C194	C	0.599768	0.093558	0.396099
	C195	C	0.402577	0.901784	0.393597
	C196	C	0.604296	0.397792	0.089936
	C197	C	0.602137	0.599650	0.901143
	C198	C	0.402815	0.598780	0.089897
	C199	C	0.402238	0.398978	0.901642
	C200	C	0.098691	0.595987	0.395599
	C201	C	0.906251	0.594701	0.593535
	C202	C	0.097922	0.398784	0.595270
	C203	C	0.905877	0.398241	0.394024
	C204	C	0.904707	0.594341	0.094538
	C205	C	0.102221	0.401375	0.095862
	C206	C	0.100148	0.593227	0.895446
	C207	C	0.903098	0.402674	0.894195
	C208	C	0.103983	0.896030	0.589331
	C209	C	0.101655	0.097995	0.400917
	C210	C	0.902900	0.097204	0.589322
	C211	C	0.899748	0.895127	0.401069
	C212	C	0.597683	0.096730	0.896024
	C213	C	0.405352	0.097658	0.095616
	C214	C	0.598485	0.900258	0.095887
	C215	C	0.405925	0.900195	0.894869
	Zn216	Zn	0.502244	-0.001456	0.745281
	Zn217	Zn	0.501908	-0.001640	0.244905
	Zn218	Zn	0.754096	0.498406	-0.005367
	Zn219	Zn	0.251247	0.498165	-0.004138
	Zn220	Zn	0.002597	0.745052	0.495119
	Zn221	Zn	0.001982	0.249048	0.495028
	Zn222	Zn	0.001619	0.497510	0.744438
	Zn223	Zn	0.002992	0.497164	0.244652
	Zn224	Zn	0.502156	0.750296	-0.004449
	Zn225	Zn	0.502386	0.246923	-0.003865
	Zn226	Zn	0.750461	-0.003505	0.495647
	Zn227	Zn	0.253656	-0.003079	0.494994
	N228	N	0.414580	0.961401	0.675304
	N229	N	0.589242	0.034494	0.674862
	N230	N	0.587880	0.961293	0.316672
	N231	N	0.414892	0.034923	0.315352
	N232	N	0.680358	0.413165	0.957706
	N233	N	0.682905	0.585023	0.032030
	N234	N	0.322620	0.585035	0.959076
	N235	N	0.324715	0.413260	0.033180
	N236	N	0.964407	0.672151	0.411048
	N237	N	0.040230	0.671791	0.578846
	N238	N	0.964070	0.320923	0.579225
	N239	N	0.039969	0.321287	0.411155
	N240	N	0.965496	0.409398	0.674347
	N241	N	0.038198	0.584563	0.674369
	N242	N	0.966289	0.584116	0.315338
	N243	N	0.038758	0.410079	0.315549
	N244	N	0.416340	0.677533	0.958581
	N245	N	0.588546	0.677620	0.032721
	N246	N	0.589069	0.318302	0.959214
	N247	N	0.416922	0.319649	0.032627
	N248	N	0.675595	0.959096	0.412789
	N249	N	0.678922	0.034699	0.580642
	N250	N	0.328049	0.959197	0.577676
	N251	N	0.324605	0.035359	0.409655
	N252	N	0.916185	0.461140	0.173317
	N253	N	0.090659	0.533980	0.175142
	N254	N	0.089068	0.460957	0.815774
	N255	N	0.914392	0.534768	0.814130
	N256	N	0.180668	0.910969	0.457771
	N257	N	0.181738	0.083324	0.531892
	N258	N	0.823782	0.081447	0.458139
	N259	N	0.822297	0.909573	0.532841
	N260	N	0.464344	0.174824	0.911170
	N261	N	0.539855	0.173769	0.080185
	N262	N	0.464691	0.822659	0.079604
	N263	N	0.539832	0.822485	0.911167
	N264	N	0.465480	0.911736	0.173851
	N265	N	0.537951	0.086345	0.175912
	N266	N	0.465461	0.086509	0.815054
	N267	N	0.539165	0.912155	0.816732
	N268	N	0.916123	0.175895	0.458025
	N269	N	0.088362	0.176447	0.532411
	N270	N	0.087365	0.818016	0.457706
	N271	N	0.916185	0.816480	0.532376
	N272	N	0.178358	0.459533	0.911889
	N273	N	0.179165	0.535514	0.080168
	N274	N	0.827496	0.460600	0.078039
	N275	N	0.825575	0.536147	0.909468
	O276	O	0.485505	0.469945	0.393534
	H277	H	0.503305	0.479674	0.396334
	H278	H	0.476173	0.469380	0.392299
	O279	O	0.480057	0.411411	0.550535
	H280	H	0.476078	0.414292	0.560344
	H281	H	0.478959	0.414037	0.555907
	O282	O	0.376967	0.457012	0.553772
	H283	H	0.377377	0.448369	0.551740
	H284	H	0.388477	0.451921	0.564060
	O285	O	-0.425624	1.554734	1.540351
	H286	H	-0.413269	1.556189	1.539033
	H287	H	-0.419582	1.550822	1.539653
	O288	O	0.499133	0.508871	0.504316
	H289	H	0.497914	0.496984	0.504960
	H290	H	0.505957	0.507557	0.505964
	O291	O	-0.034371	0.027886	0.991254
	H292	H	-0.033016	0.023765	0.995310
	H293	H	-0.035590	0.030025	0.993991
	O294	O	0.473220	0.526648	0.512218
	H295	H	0.465324	0.528638	0.506423
	H296	H	0.476760	0.534499	0.514047
	O297	O	0.497051	0.542905	0.504540
	H298	H	0.505188	0.548861	0.515646
	H299	H	0.481415	0.548042	0.505066
	O300	O	0.496770	0.450177	0.487563
	H301	H	0.497424	0.444782	0.482296
	H302	H	0.490126	0.451901	0.491230
	O303	O	0.514514	0.542906	0.542870
	H304	H	0.513858	0.542985	0.533851
	H305	H	0.512071	0.541772	0.545532
	O306	O	0.993111	0.024512	0.948956
	H307	H	0.992068	0.024810	0.948874
	H308	H	0.991354	0.027448	0.939416
	O309	O	0.547238	0.503294	0.445664
	H310	H	0.540663	0.499668	0.450594
	H311	H	0.535817	0.509053	0.450361
	O312	O	0.448754	0.466105	0.519139
	H313	H	0.451385	0.452788	0.527568
	H314	H	0.445886	0.455750	0.510442
	O315	O	0.983165	0.066654	0.999327
	H316	H	0.990163	0.065743	1.009523
	H317	H	0.984316	0.070104	0.996096
	O318	O	-0.025119	0.046805	0.001731
	H319	H	-0.021898	0.040489	0.002499
	H320	H	-0.019819	0.042401	-0.007490
	O321	O	0.419051	0.493373	0.494061
	H322	H	0.417155	0.509193	0.490053
	H323	H	0.402124	0.484860	0.498637
	O324	O	1.008354	0.069038	-0.071170
	H325	H	1.001254	0.071788	-0.068296
	H326	H	1.006016	0.074152	-0.071877
	O327	O	0.946071	1.039073	-0.044912
	H328	H	0.944387	1.044144	-0.045304
	H329	H	0.944458	1.033791	-0.042963
	O330	O	0.475529	0.483067	0.574372
	H331	H	0.477078	0.484930	0.561610
	H332	H	0.472437	0.493121	0.579473
	O333	O	0.564020	0.534870	0.529926
	H334	H	0.561184	0.525566	0.519227
	H335	H	0.570861	0.542842	0.533841
