data_Molecule from HDF5

_cell_length_a		16.256150
_cell_length_b		16.220734
_cell_length_c		16.055298
_cell_angle_alpha	88.256284
_cell_angle_beta	90.097342
_cell_angle_gamma	90.097169
_symmetry_space_group_name_H-M	'P 1'
_symmetry_Int_Tables_number		1

loop_
	_symmetry_equiv_pos_as_xyz
	x,y,z

loop_
	_atom_site_label
	_atom_site_type_symbol
	_atom_site_fract_x
	_atom_site_fract_y
	_atom_site_fract_z
	H0	H	0.409240	0.844267	0.722283
	H1	H	0.604556	0.172982	0.710287
	H2	H	0.604333	0.841380	0.296679
	H3	H	0.407434	0.170135	0.282495
	H4	H	0.716277	0.412319	0.836651
	H5	H	0.717964	0.603130	0.165474
	H6	H	0.287823	0.611598	0.835653
	H7	H	0.288294	0.402409	0.166357
	H8	H	0.843493	0.732608	0.394271
	H9	H	0.170524	0.718320	0.596515
	H10	H	0.842511	0.284438	0.606938
	H11	H	0.170378	0.299890	0.405641
	H12	H	0.838877	0.404659	0.716954
	H13	H	0.168867	0.600193	0.713848
	H14	H	0.840160	0.612004	0.283391
	H15	H	0.168934	0.417326	0.292632
	H16	H	0.400071	0.730489	0.838122
	H17	H	0.600075	0.712854	0.169096
	H18	H	0.598391	0.303096	0.834226
	H19	H	0.399210	0.286294	0.164688
	H20	H	0.724518	0.845065	0.406442
	H21	H	0.722401	0.171334	0.598767
	H22	H	0.291063	0.844752	0.610092
	H23	H	0.293747	0.171263	0.397393
	H24	H	0.902917	0.344977	0.223303
	H25	H	0.100993	0.673986	0.206706
	H26	H	0.097989	0.340998	0.796394
	H27	H	0.902253	0.669991	0.778274
	H28	H	0.221973	0.914118	0.337306
	H29	H	0.222688	0.102748	0.667565
	H30	H	0.789587	0.116766	0.338540
	H31	H	0.793900	0.902294	0.667858
	H32	H	0.339200	0.224542	0.897120
	H33	H	0.666242	0.223244	0.098870
	H34	H	0.340907	0.786544	0.109458
	H35	H	0.664976	0.793728	0.904760
	H36	H	0.341179	0.904353	0.222110
	H37	H	0.670008	0.101761	0.211602
	H38	H	0.341697	0.108964	0.782240
	H39	H	0.669557	0.914201	0.797289
	H40	H	0.909857	0.225736	0.336692
	H41	H	0.108403	0.217827	0.668145
	H42	H	0.106199	0.802718	0.334604
	H43	H	0.905949	0.785205	0.664619
	H44	H	0.219918	0.344784	0.901925
	H45	H	0.220051	0.669989	0.096729
	H46	H	0.786148	0.344411	0.107930
	H47	H	0.786621	0.671624	0.892846
	H48	H	0.410185	0.124588	0.581906
	H49	H	0.597103	0.891912	0.597036
	H50	H	0.597904	0.120399	0.418540
	H51	H	0.417256	0.892332	0.423165
	H52	H	0.586459	0.414497	0.117646
	H53	H	0.583290	0.608961	0.884288
	H54	H	0.409074	0.601235	0.123087
	H55	H	0.409336	0.409279	0.879350
	H56	H	0.119501	0.600699	0.406551
	H57	H	0.886394	0.602887	0.590698
	H58	H	0.125814	0.396734	0.594592
	H59	H	0.886310	0.417047	0.408578
	H60	H	0.115096	0.423217	0.587980
	H61	H	0.890104	0.598793	0.582687
	H62	H	0.125510	0.606408	0.395303
	H63	H	0.887754	0.412740	0.415434
	H64	H	0.403591	0.590916	0.119213
	H65	H	0.600620	0.610407	0.878928
	H66	H	0.594854	0.405767	0.122638
	H67	H	0.398106	0.422744	0.878466
	H68	H	0.609373	0.129761	0.400927
	H69	H	0.606367	0.888885	0.599198
	H70	H	0.407197	0.129267	0.597357
	H71	H	0.403731	0.887463	0.416790
	H72	H	0.914795	0.624939	0.093306
	H73	H	0.090698	0.390329	0.103416
	H74	H	0.097995	0.625016	0.903825
	H75	H	0.905683	0.388615	0.911086
	H76	H	0.094446	0.907288	0.620129
	H77	H	0.095741	0.110500	0.383456
	H78	H	0.904284	0.096376	0.624942
	H79	H	0.908592	0.931092	0.384640
	H80	H	0.621574	0.106247	0.907742
	H81	H	0.386596	0.100986	0.089321
	H82	H	0.624618	0.898036	0.095716
	H83	H	0.387412	0.919353	0.916004
	H84	H	0.616749	0.917073	0.090189
	H85	H	0.389310	0.092698	0.090380
	H86	H	0.622679	0.107564	0.906446
	H87	H	0.385939	0.921278	0.910310
	H88	H	0.919187	0.084839	0.616630
	H89	H	0.105983	0.109253	0.380911
	H90	H	0.104063	0.908834	0.623391
	H91	H	0.923393	0.925373	0.386552
	H92	H	0.090155	0.624504	0.902773
	H93	H	0.094630	0.391253	0.092663
	H94	H	0.909232	0.623083	0.079822
	H95	H	0.906770	0.390137	0.914322
	H96	H	0.421933	0.123392	0.592595
	H97	H	0.599797	0.888430	0.606972
	H98	H	0.587930	0.122928	0.399225
	H99	H	0.415398	0.888089	0.407918
	H100	H	0.598486	0.418372	0.119533
	H101	H	0.593600	0.595169	0.885080
	H102	H	0.414426	0.592837	0.118836
	H103	H	0.415036	0.425320	0.885903
	H104	H	0.123709	0.614092	0.407799
	H105	H	0.889552	0.593097	0.590375
	H106	H	0.124756	0.416224	0.615131
	H107	H	0.889173	0.421217	0.414487
	H108	H	0.900944	0.628005	0.091393
	H109	H	0.100550	0.388372	0.101247
	H110	H	0.094146	0.623450	0.909815
	H111	H	0.905169	0.390259	0.913708
	H112	H	0.100019	0.916680	0.619658
	H113	H	0.100368	0.100459	0.384965
	H114	H	0.923075	0.104854	0.621229
	H115	H	0.911859	0.915537	0.379914
	H116	H	0.622230	0.108903	0.908478
	H117	H	0.386359	0.096156	0.096350
	H118	H	0.624496	0.913336	0.109688
	H119	H	0.385581	0.916397	0.912738
	C120	C	0.384519	0.017293	0.624001
	C121	C	0.629279	0.998731	0.625786
	C122	C	0.628117	0.016189	0.380670
	C123	C	0.384122	0.997832	0.382261
	C124	C	0.622099	0.387599	0.010249
	C125	C	0.622544	0.629512	0.992487
	C126	C	0.380069	0.628703	0.010938
	C127	C	0.379307	0.386478	0.991048
	C128	C	0.014219	0.635743	0.374251
	C129	C	0.997020	0.626073	0.618426
	C130	C	0.013280	0.381916	0.627149
	C131	C	0.996258	0.390319	0.384266
	C132	C	0.880124	0.516945	0.122255
	C133	C	0.124379	0.498880	0.123052
	C134	C	0.123194	0.515477	0.880302
	C135	C	0.878305	0.498244	0.878710
	C136	C	0.128199	0.887110	0.510792
	C137	C	0.129310	0.130790	0.493314
	C138	C	0.886010	0.128821	0.511774
	C139	C	0.885308	0.888645	0.492546
	C140	C	0.513155	0.134115	0.877156
	C141	C	0.495447	0.126392	0.120971
	C142	C	0.513230	0.881075	0.128160
	C143	C	0.494847	0.890209	0.884969
	C144	C	0.387878	0.893488	0.683617
	C145	C	0.625825	0.123154	0.675637
	C146	C	0.625604	0.891581	0.331074
	C147	C	0.386916	0.121179	0.321814
	C148	C	0.677731	0.392081	0.885588
	C149	C	0.679262	0.623851	0.116896
	C150	C	0.324837	0.630879	0.885945
	C151	C	0.325069	0.384079	0.116304
	C152	C	0.891685	0.692842	0.375181
	C153	C	0.121074	0.680360	0.616964
	C154	C	0.890847	0.324010	0.625888
	C155	C	0.120464	0.336642	0.385758
	C156	C	0.888913	0.383808	0.680615
	C157	C	0.120280	0.621482	0.675122
	C158	C	0.890071	0.633051	0.319802
	C159	C	0.120066	0.395135	0.329555
	C160	C	0.380833	0.690017	0.887072
	C161	C	0.620707	0.678726	0.118445
	C162	C	0.618887	0.337803	0.884469
	C163	C	0.379992	0.325987	0.115516
	C164	C	0.685546	0.893507	0.385700
	C165	C	0.684660	0.122272	0.619953
	C166	C	0.329289	0.893823	0.627546
	C167	C	0.330399	0.121765	0.379290
	C168	C	0.882400	0.393993	0.183852
	C169	C	0.121541	0.623928	0.171824
	C170	C	0.119243	0.390883	0.830904
	C171	C	0.881351	0.621269	0.818030
	C172	C	0.184040	0.893026	0.386535
	C173	C	0.184919	0.124335	0.618145
	C174	C	0.828957	0.133092	0.387697
	C175	C	0.830629	0.884071	0.617463
	C176	C	0.389203	0.187958	0.877367
	C177	C	0.618098	0.183768	0.118996
	C178	C	0.389857	0.825368	0.127706
	C179	C	0.617149	0.833296	0.886413
	C180	C	0.390095	0.883526	0.184268
	C181	C	0.620005	0.122989	0.174844
	C182	C	0.390259	0.130230	0.820336
	C183	C	0.619516	0.893174	0.832694
	C184	C	0.888512	0.187869	0.386780
	C185	C	0.128085	0.181852	0.618279
	C186	C	0.126174	0.837429	0.385126
	C187	C	0.886264	0.825717	0.615915
	C188	C	0.180199	0.393018	0.883603
	C189	C	0.181030	0.621818	0.117358
	C190	C	0.824312	0.393486	0.126184
	C191	C	0.823882	0.622055	0.875141
	C192	C	0.406496	0.103586	0.598154
	C193	C	0.607430	0.912088	0.606771
	C194	C	0.605147	0.102357	0.400330
	C195	C	0.405927	0.911460	0.408291
	C196	C	0.599719	0.406991	0.097200
	C197	C	0.599448	0.610517	0.905484
	C198	C	0.402418	0.602602	0.097870
	C199	C	0.401048	0.411840	0.903925
	C200	C	0.100468	0.613610	0.396535
	C201	C	0.911065	0.604548	0.594773
	C202	C	0.099649	0.405143	0.605623
	C203	C	0.909978	0.411006	0.406426
	C204	C	0.902016	0.602973	0.095840
	C205	C	0.101913	0.412535	0.104518
	C206	C	0.100741	0.602028	0.899765
	C207	C	0.899650	0.411994	0.905192
	C208	C	0.106121	0.905448	0.598379
	C209	C	0.107314	0.112263	0.405810
	C210	C	0.908782	0.102919	0.598511
	C211	C	0.908113	0.915849	0.406223
	C212	C	0.599647	0.113661	0.900545
	C213	C	0.409735	0.103334	0.098656
	C214	C	0.599408	0.902865	0.105427
	C215	C	0.408602	0.912475	0.906511
	Zn216	Zn	0.506253	0.008744	0.753309
	Zn217	Zn	0.505420	0.004913	0.253772
	Zn218	Zn	0.750072	0.508058	0.000283
	Zn219	Zn	0.252189	0.506255	0.000986
	Zn220	Zn	0.006539	0.760646	0.499061
	Zn221	Zn	0.006531	0.257405	0.502879
	Zn222	Zn	0.002258	0.505687	0.752360
	Zn223	Zn	0.003349	0.509492	0.251034
	Zn224	Zn	0.502201	0.757306	0.003340
	Zn225	Zn	0.501437	0.260468	0.000467
	Zn226	Zn	0.756808	0.008249	0.502817
	Zn227	Zn	0.256211	0.007920	0.502733
	N228	N	0.421700	0.971273	0.681623
	N229	N	0.591775	0.045453	0.679385
	N230	N	0.590600	0.968797	0.327809
	N231	N	0.419683	0.042896	0.323441
	N232	N	0.679989	0.422212	0.964680
	N233	N	0.680620	0.594036	0.037592
	N234	N	0.324156	0.593583	0.964127
	N235	N	0.324430	0.420996	0.037817
	N236	N	0.969864	0.694728	0.408138
	N237	N	0.043591	0.683025	0.582286
	N238	N	0.969334	0.322346	0.593591
	N239	N	0.042475	0.333745	0.419331
	N240	N	0.966177	0.418838	0.681935
	N241	N	0.041967	0.588501	0.676201
	N242	N	0.967336	0.598325	0.318898
	N243	N	0.042063	0.428060	0.328469
	N244	N	0.414151	0.688910	0.965879
	N245	N	0.585968	0.682433	0.040198
	N246	N	0.584619	0.334789	0.962902
	N247	N	0.412792	0.327158	0.036599
	N248	N	0.687324	0.972063	0.415780
	N249	N	0.686994	0.043753	0.589978
	N250	N	0.327193	0.971865	0.591276
	N251	N	0.328512	0.044021	0.415986
	N252	N	0.916313	0.471843	0.181563
	N253	N	0.086976	0.546546	0.175648
	N254	N	0.084310	0.468244	0.828584
	N255	N	0.914389	0.543250	0.820074
	N256	N	0.185476	0.923095	0.465789
	N257	N	0.185827	0.093259	0.539308
	N258	N	0.827286	0.096995	0.466469
	N259	N	0.830034	0.922659	0.539889
	N260	N	0.466616	0.190387	0.912139
	N261	N	0.539812	0.186066	0.086067
	N262	N	0.467427	0.823574	0.093742
	N263	N	0.538616	0.831230	0.918175
	N264	N	0.467720	0.917645	0.184662
	N265	N	0.542645	0.087952	0.176347
	N266	N	0.468366	0.097720	0.819779
	N267	N	0.542283	0.928042	0.831590
	N268	N	0.923350	0.185387	0.464990
	N269	N	0.094201	0.185796	0.539687
	N270	N	0.092091	0.833582	0.463445
	N271	N	0.919775	0.828389	0.537151
	N272	N	0.182694	0.471557	0.913595
	N273	N	0.183128	0.543119	0.087728
	N274	N	0.822572	0.470930	0.088620
	N275	N	0.821927	0.544394	0.912279
	O276	O	0.544952	0.583404	0.427915
	H277	H	0.547860	0.577464	0.424528
	H278	H	0.544998	0.586126	0.412172
	O279	O	0.506519	0.563455	0.498991
	H280	H	0.503176	0.555283	0.491284
	H281	H	0.512462	0.556861	0.500543
	O282	O	0.857386	0.947689	0.031675
	H283	H	0.867974	0.955335	0.042923
	H284	H	0.851642	0.953284	0.032032
	O285	O	0.960285	-0.091187	0.930295
	H286	H	0.949328	-0.079017	0.921680
	H287	H	0.956478	-0.101455	0.937870
	O288	O	-0.102799	0.059462	-0.047652
	H289	H	-0.100171	0.067620	-0.034405
	H290	H	-0.109567	0.061280	-0.057844
	O291	O	0.526889	0.549009	0.478985
	H292	H	0.525441	0.549448	0.470190
	H293	H	0.531003	0.540273	0.482320
	O294	O	0.526700	0.502054	0.554903
	H295	H	0.508625	0.502581	0.556264
	H296	H	0.525042	0.490787	0.551472
	O297	O	0.063994	-0.033529	0.940204
	H298	H	0.059287	-0.029425	0.950347
	H299	H	0.066368	-0.015801	0.935610
	O300	O	0.528666	0.413483	0.488063
	H301	H	0.526516	0.415152	0.508680
	H302	H	0.531639	0.416176	0.494657
	O303	O	1.118272	1.093065	0.153259
	H304	H	1.099279	1.095193	0.146833
	H305	H	1.116450	1.074096	0.155643
	O306	O	-0.568684	1.461362	0.500443
	H307	H	-0.563494	1.461760	0.512139
	H308	H	-0.573182	1.469058	0.504616
	O309	O	0.483714	0.467746	0.519867
	H310	H	0.487126	0.477578	0.531265
	H311	H	0.493779	0.457234	0.517155
	O312	O	0.070000	-0.108639	-0.036761
	H313	H	0.064245	-0.117462	-0.039464
	H314	H	0.063600	-0.093415	-0.036973
	O315	O	0.892667	0.114662	-0.117012
	H316	H	0.899243	0.118657	-0.118340
	H317	H	0.899965	0.121040	-0.120897
	O318	O	0.975719	0.988108	1.054037
	H319	H	0.981877	0.985805	1.051934
	H320	H	0.976639	0.986091	1.043744
	O321	O	-0.078542	0.039107	0.989275
	H322	H	-0.079602	0.039002	0.996105
	H323	H	-0.060837	0.033684	0.990347
	O324	O	0.369482	0.563883	0.382312
	H325	H	0.376465	0.561528	0.382606
	H326	H	0.364243	0.558350	0.383473
	O327	O	0.113550	0.152057	0.034394
	H328	H	0.123380	0.161847	0.051491
	H329	H	0.110036	0.146575	0.048530
	O330	O	0.535989	0.538023	0.584337
	H331	H	0.543445	0.537691	0.578370
	H332	H	0.533724	0.541941	0.579987
	O333	O	-0.474125	0.451790	0.474959
	H334	H	-0.466953	0.447813	0.480448
	H335	H	-0.498545	0.452719	0.477093
	O336	O	-0.121991	-0.129770	0.062435
	H337	H	-0.106705	-0.118595	0.068517
	H338	H	-0.130269	-0.131156	0.050697
	O339	O	0.866171	0.174435	0.798668
	H340	H	0.875688	0.167769	0.816635
	H341	H	0.853531	0.172986	0.797291
	O342	O	1.154689	0.870006	0.938144
	H343	H	1.163537	0.853585	0.934242
	H344	H	1.164466	0.865893	0.921122
	O345	O	0.985509	1.078243	0.103330
	H346	H	0.990238	1.075555	0.107645
	H347	H	0.980651	1.079725	0.098003
	O348	O	0.511590	0.531815	0.518607
	H349	H	0.502679	0.525098	0.518971
	H350	H	0.519748	0.535452	0.500195
	O351	O	0.509727	0.466254	0.496002
	H352	H	0.503140	0.472822	0.498640
	H353	H	0.510364	0.481347	0.493371
	O354	O	0.442838	0.455328	0.549298
	H355	H	0.445658	0.453345	0.553065
	H356	H	0.422968	0.455213	0.536439
	O357	O	1.047444	-0.064898	1.131498
	H358	H	1.040672	-0.068680	1.132601
	H359	H	1.052449	-0.068294	1.121288
	O360	O	0.503576	0.498255	0.586615
	H361	H	0.514358	0.497420	0.594283
	H362	H	0.502131	0.500438	0.589663
	O363	O	0.944341	0.113224	0.947346
	H364	H	0.941936	0.107581	0.936478
	H365	H	0.952626	0.116932	0.954820
	O366	O	1.097866	1.030967	1.071432
	H367	H	1.095235	1.026253	1.057877
	H368	H	1.105469	1.017823	1.066735
	O369	O	1.075515	0.030844	0.849285
	H370	H	1.077617	0.056084	0.851379
	H371	H	1.077149	0.030899	0.845998
	O372	O	-0.074997	-0.054457	0.179291
	H373	H	-0.082820	-0.068677	0.201084
	H374	H	-0.085473	-0.060866	0.162174
	O375	O	1.098176	0.014710	0.000973
	H376	H	1.105801	0.005997	0.000570
	H377	H	1.100034	0.011130	-0.000909
	O378	O	0.528964	0.531211	0.508119
	H379	H	0.537321	0.532631	0.501565
	H380	H	0.536684	0.533353	0.515513
	O381	O	0.536282	0.614618	0.545629
	H382	H	0.528996	0.614196	0.544265
	H383	H	0.540559	0.628368	0.533966
