data_Molecule from HDF5

_cell_length_a		16.179816
_cell_length_b		15.980164
_cell_length_c		16.390688
_cell_angle_alpha	89.045320
_cell_angle_beta	90.840601
_cell_angle_gamma	89.829877
_symmetry_space_group_name_H-M	'P 1'
_symmetry_Int_Tables_number		1

loop_
	_symmetry_equiv_pos_as_xyz
	x,y,z

loop_
	_atom_site_label
	_atom_site_type_symbol
	_atom_site_fract_x
	_atom_site_fract_y
	_atom_site_fract_z
	H0	H	0.407094	0.849331	0.724645
	H1	H	0.612138	0.178787	0.719373
	H2	H	0.607812	0.846125	0.295095
	H3	H	0.403554	0.176915	0.284963
	H4	H	0.719050	0.412362	0.843346
	H5	H	0.725710	0.610516	0.166072
	H6	H	0.283082	0.616944	0.844917
	H7	H	0.294132	0.408894	0.169307
	H8	H	0.842442	0.726355	0.403194
	H9	H	0.172586	0.716787	0.601879
	H10	H	0.840691	0.295687	0.600585
	H11	H	0.172399	0.300278	0.416167
	H12	H	0.841401	0.403861	0.721482
	H13	H	0.166750	0.611643	0.727781
	H14	H	0.843857	0.616755	0.283300
	H15	H	0.169552	0.408463	0.293454
	H16	H	0.402014	0.731981	0.844174
	H17	H	0.604855	0.720602	0.168779
	H18	H	0.599469	0.302860	0.841213
	H19	H	0.411622	0.293241	0.168113
	H20	H	0.716849	0.844597	0.414602
	H21	H	0.722060	0.178496	0.601425
	H22	H	0.299334	0.844754	0.604617
	H23	H	0.290831	0.177429	0.401608
	H24	H	0.905758	0.345446	0.221644
	H25	H	0.107794	0.675117	0.219617
	H26	H	0.104853	0.343805	0.796205
	H27	H	0.896181	0.671996	0.780412
	H28	H	0.221299	0.913986	0.342358
	H29	H	0.229725	0.111150	0.666395
	H30	H	0.788121	0.115039	0.344325
	H31	H	0.793483	0.904608	0.667963
	H32	H	0.341594	0.226576	0.904042
	H33	H	0.672637	0.221008	0.099989
	H34	H	0.341628	0.797414	0.104302
	H35	H	0.671321	0.799362	0.914259
	H36	H	0.343968	0.908198	0.222386
	H37	H	0.668666	0.116233	0.224219
	H38	H	0.345875	0.120620	0.780878
	H39	H	0.670247	0.909450	0.792815
	H40	H	0.905510	0.227687	0.343693
	H41	H	0.105958	0.219602	0.669983
	H42	H	0.105159	0.797719	0.341996
	H43	H	0.913077	0.791210	0.668496
	H44	H	0.216857	0.344470	0.912414
	H45	H	0.220775	0.675620	0.107004
	H46	H	0.795200	0.344096	0.103672
	H47	H	0.789965	0.676615	0.900917
	H48	H	0.418197	0.130119	0.588886
	H49	H	0.604542	0.890094	0.607213
	H50	H	0.600259	0.133936	0.405977
	H51	H	0.412350	0.893594	0.418510
	H52	H	0.593743	0.421455	0.117738
	H53	H	0.591204	0.598409	0.892815
	H54	H	0.411095	0.608268	0.124632
	H55	H	0.406961	0.419026	0.888800
	H56	H	0.122304	0.593746	0.412258
	H57	H	0.888730	0.594160	0.599397
	H58	H	0.123254	0.417555	0.605255
	H59	H	0.883313	0.408615	0.405514
	H60	H	0.123581	0.415255	0.604253
	H61	H	0.886772	0.606018	0.593421
	H62	H	0.126376	0.603447	0.404928
	H63	H	0.892092	0.421357	0.422210
	H64	H	0.409174	0.596133	0.120591
	H65	H	0.590560	0.615516	0.887634
	H66	H	0.601217	0.406382	0.125067
	H67	H	0.405202	0.422982	0.888785
	H68	H	0.590536	0.129657	0.410572
	H69	H	0.593394	0.895022	0.604841
	H70	H	0.414122	0.132628	0.593364
	H71	H	0.413129	0.889876	0.407887
	H72	H	0.910056	0.631273	0.094160
	H73	H	0.112676	0.386466	0.099473
	H74	H	0.093080	0.629142	0.914971
	H75	H	0.908909	0.389369	0.912066
	H76	H	0.104750	0.912630	0.621873
	H77	H	0.092979	0.108110	0.390621
	H78	H	0.919204	0.100116	0.621521
	H79	H	0.907378	0.922767	0.389101
	H80	H	0.625538	0.099542	0.904588
	H81	H	0.389808	0.097227	0.099474
	H82	H	0.627276	0.920775	0.114152
	H83	H	0.389481	0.929948	0.902276
	H84	H	0.626741	0.907301	0.100190
	H85	H	0.386546	0.106604	0.096826
	H86	H	0.628907	0.114937	0.909744
	H87	H	0.386998	0.916379	0.913680
	H88	H	0.912425	0.104879	0.624430
	H89	H	0.103393	0.108500	0.387069
	H90	H	0.107277	0.914566	0.621396
	H91	H	0.913713	0.922491	0.391876
	H92	H	0.089141	0.629383	0.910999
	H93	H	0.093023	0.388607	0.116424
	H94	H	0.917512	0.630632	0.097522
	H95	H	0.914384	0.390538	0.913705
	H96	H	0.421202	0.130747	0.594820
	H97	H	0.601170	0.895297	0.596084
	H98	H	0.601266	0.131087	0.417046
	H99	H	0.422132	0.894761	0.413614
	H100	H	0.610504	0.422001	0.122713
	H101	H	0.606876	0.606490	0.885941
	H102	H	0.420518	0.601377	0.120135
	H103	H	0.409684	0.422851	0.890414
	H104	H	0.124353	0.607110	0.416926
	H105	H	0.891082	0.596360	0.587188
	H106	H	0.122670	0.417596	0.603142
	H107	H	0.888455	0.430539	0.400905
	H108	H	0.915362	0.628454	0.090241
	H109	H	0.088504	0.397099	0.090860
	H110	H	0.088705	0.627010	0.916475
	H111	H	0.910712	0.391824	0.916112
	H112	H	0.103733	0.914262	0.621123
	H113	H	0.099311	0.099154	0.391902
	H114	H	0.911995	0.096259	0.622608
	H115	H	0.911299	0.916178	0.388011
	H116	H	0.623000	0.103004	0.919646
	H117	H	0.390245	0.101191	0.089414
	H118	H	0.619981	0.924414	0.096382
	H119	H	0.393562	0.931839	0.919160
	C120	C	0.388730	0.021719	0.624354
	C121	C	0.629763	1.003569	0.629076
	C122	C	0.626891	0.021131	0.385392
	C123	C	0.385660	1.002665	0.382442
	C124	C	0.627526	0.390366	0.013486
	C125	C	0.627040	0.633783	0.996350
	C126	C	0.381686	0.634265	0.014956
	C127	C	0.382229	0.389521	0.997158
	C128	C	0.016188	0.632900	0.380796
	C129	C	0.996983	0.628497	0.625288
	C130	C	0.014295	0.386855	0.629870
	C131	C	0.997250	0.390502	0.385026
	C132	C	0.885627	0.519928	0.124690
	C133	C	0.127814	0.500524	0.129488
	C134	C	0.121729	0.519054	0.887063
	C135	C	0.881241	0.500237	0.882224
	C136	C	0.131459	0.887286	0.513683
	C137	C	0.129382	0.132833	0.497198
	C138	C	0.884633	0.131949	0.515242
	C139	C	0.884888	0.888527	0.497236
	C140	C	0.517017	0.135908	0.880990
	C141	C	0.497651	0.131317	0.124646
	C142	C	0.515829	0.888528	0.130512
	C143	C	0.498092	0.894114	0.885454
	C144	C	0.389051	0.897750	0.684156
	C145	C	0.630181	0.128853	0.681929
	C146	C	0.626386	0.896006	0.332286
	C147	C	0.384736	0.127416	0.324230
	C148	C	0.681361	0.392914	0.891581
	C149	C	0.685819	0.630330	0.117907
	C150	C	0.322576	0.635936	0.893342
	C151	C	0.330482	0.389382	0.120192
	C152	C	0.891920	0.689179	0.382433
	C153	C	0.122160	0.681433	0.623526
	C154	C	0.890161	0.332178	0.623470
	C155	C	0.122186	0.336574	0.393049
	C156	C	0.890799	0.385862	0.683672
	C157	C	0.119104	0.628912	0.685955
	C158	C	0.892745	0.634329	0.322906
	C159	C	0.120792	0.390218	0.331838
	C160	C	0.381582	0.693406	0.892984
	C161	C	0.625537	0.684929	0.119656
	C162	C	0.621562	0.338474	0.890491
	C163	C	0.388991	0.331713	0.119625
	C164	C	0.680616	0.895005	0.392037
	C165	C	0.685155	0.128742	0.623617
	C166	C	0.335296	0.895428	0.624508
	C167	C	0.328896	0.127659	0.382251
	C168	C	0.886931	0.394977	0.182489
	C169	C	0.127142	0.625471	0.182772
	C170	C	0.123071	0.393585	0.833715
	C171	C	0.879117	0.623594	0.821395
	C172	C	0.184404	0.892337	0.391135
	C173	C	0.188703	0.130204	0.618681
	C174	C	0.827084	0.133502	0.392782
	C175	C	0.831236	0.886611	0.619561
	C176	C	0.391883	0.190685	0.882609
	C177	C	0.622609	0.185237	0.121842
	C178	C	0.391518	0.834192	0.125736
	C179	C	0.622047	0.836839	0.891469
	C180	C	0.392671	0.889179	0.184762
	C181	C	0.620703	0.132782	0.183227
	C182	C	0.394089	0.137957	0.821443
	C183	C	0.621474	0.892008	0.831417
	C184	C	0.885599	0.189433	0.392357
	C185	C	0.127371	0.184528	0.620430
	C186	C	0.126443	0.834456	0.391026
	C187	C	0.890484	0.829765	0.619599
	C188	C	0.178905	0.394024	0.891503
	C189	C	0.183435	0.625619	0.126522
	C190	C	0.831935	0.394097	0.123670
	C191	C	0.826200	0.625985	0.881507
	C192	C	0.411341	0.108675	0.599707
	C193	C	0.606651	0.916137	0.608734
	C194	C	0.604124	0.109129	0.405433
	C195	C	0.409033	0.915506	0.406255
	C196	C	0.607674	0.410831	0.099792
	C197	C	0.603148	0.613050	0.910854
	C198	C	0.406323	0.609295	0.099814
	C199	C	0.401691	0.414180	0.911275
	C200	C	0.102004	0.608625	0.404479
	C201	C	0.911184	0.605508	0.600634
	C202	C	0.100803	0.409928	0.610021
	C203	C	0.910437	0.413471	0.404133
	C204	C	0.907933	0.607239	0.100898
	C205	C	0.104852	0.413049	0.108408
	C206	C	0.097279	0.605913	0.907880
	C207	C	0.904405	0.413065	0.906778
	C208	C	0.111218	0.907893	0.599306
	C209	C	0.105448	0.111577	0.412046
	C210	C	0.907858	0.107771	0.600623
	C211	C	0.904880	0.913246	0.411996
	C212	C	0.603106	0.112820	0.904466
	C213	C	0.411423	0.108446	0.101962
	C214	C	0.602171	0.910785	0.109804
	C215	C	0.412291	0.918718	0.905829
	Zn216	Zn	0.508299	0.014356	0.754363
	Zn217	Zn	0.507004	0.012382	0.255762
	Zn218	Zn	0.756570	0.510690	0.004385
	Zn219	Zn	0.251805	0.511192	0.006741
	Zn220	Zn	0.007738	0.758509	0.504620
	Zn221	Zn	0.006156	0.260830	0.506703
	Zn222	Zn	0.003516	0.508383	0.756659
	Zn223	Zn	0.005997	0.510905	0.253688
	Zn224	Zn	0.505597	0.763387	0.006543
	Zn225	Zn	0.506763	0.261220	0.004540
	Zn226	Zn	0.755301	0.011470	0.506577
	Zn227	Zn	0.260178	0.010995	0.504927
	N228	N	0.421568	0.977329	0.684209
	N229	N	0.596780	0.049907	0.685720
	N230	N	0.593684	0.975652	0.328081
	N231	N	0.419447	0.048763	0.324253
	N232	N	0.685034	0.424310	0.969255
	N233	N	0.687072	0.599386	0.040140
	N234	N	0.322584	0.599882	0.970265
	N235	N	0.326229	0.424529	0.042947
	N236	N	0.969530	0.688800	0.417703
	N237	N	0.045264	0.681525	0.586424
	N238	N	0.968051	0.332292	0.590966
	N239	N	0.044148	0.336439	0.425442
	N240	N	0.968996	0.419259	0.687629
	N241	N	0.040150	0.596967	0.687125
	N242	N	0.970955	0.600441	0.321452
	N243	N	0.042072	0.423068	0.326579
	N244	N	0.417558	0.692603	0.969628
	N245	N	0.589672	0.687423	0.043044
	N246	N	0.588732	0.336861	0.967466
	N247	N	0.420249	0.331601	0.042046
	N248	N	0.680985	0.973935	0.424375
	N249	N	0.685188	0.049603	0.591476
	N250	N	0.334932	0.973546	0.588030
	N251	N	0.329226	0.048997	0.417586
	N252	N	0.919399	0.474454	0.183399
	N253	N	0.093302	0.546601	0.184945
	N254	N	0.088051	0.472145	0.830841
	N255	N	0.912675	0.544374	0.821658
	N256	N	0.187963	0.924002	0.468572
	N257	N	0.190215	0.098968	0.541084
	N258	N	0.826364	0.098373	0.470035
	N259	N	0.827404	0.922367	0.542523
	N260	N	0.469243	0.189848	0.918979
	N261	N	0.545272	0.184544	0.085810
	N262	N	0.469217	0.833586	0.092810
	N263	N	0.544331	0.837969	0.924411
	N264	N	0.470962	0.922341	0.187943
	N265	N	0.542052	0.100117	0.185313
	N266	N	0.472705	0.104824	0.820231
	N267	N	0.543551	0.926824	0.827635
	N268	N	0.920772	0.188743	0.469419
	N269	N	0.091283	0.186398	0.543824
	N270	N	0.094507	0.830844	0.468403
	N271	N	0.923317	0.830871	0.542643
	N272	N	0.178185	0.473029	0.924112
	N273	N	0.183790	0.546902	0.093975
	N274	N	0.830937	0.472809	0.088312
	N275	N	0.827427	0.548233	0.918694
	O276	O	0.468151	0.503534	0.438509
	H277	H	0.467131	0.518752	0.444471
	H278	H	0.455751	0.495152	0.445501
	O279	O	0.538367	0.478468	0.491884
	H280	H	0.541370	0.472039	0.493492
	H281	H	0.544681	0.478379	0.488017
	O282	O	1.072142	0.865421	-0.101465
	H283	H	1.060331	0.867364	-0.086072
	H284	H	1.068452	0.863385	-0.102618
	O285	O	0.978687	0.102365	0.903854
	H286	H	0.997240	0.112558	0.909131
	H287	H	0.990617	0.103200	0.896356
	O288	O	-0.000510	0.053119	-0.021531
	H289	H	-0.004160	0.060673	-0.023082
	H290	H	-0.006340	0.057433	-0.022418
	O291	O	0.549249	0.509993	0.448395
	H292	H	0.552799	0.490076	0.449831
	H293	H	0.540380	0.510321	0.452595
	O294	O	0.406448	0.559544	0.481349
	H295	H	0.426067	0.562706	0.473439
	H296	H	0.402247	0.563639	0.479573
	O297	O	0.069675	-0.036819	0.964205
	H298	H	0.069551	-0.037149	0.948028
	H299	H	0.068957	-0.044798	0.955912
	O300	O	0.513195	0.447802	0.538836
	H301	H	0.509364	0.450489	0.536750
	H302	H	0.509668	0.457771	0.534445
	O303	O	0.980486	0.916364	-0.028305
	H304	H	0.991885	0.911093	-0.010659
	H305	H	0.971381	0.910345	-0.023491
	O306	O	-0.452154	1.546867	0.479331
	H307	H	-0.447925	1.560270	0.490186
	H308	H	-0.453877	1.533015	0.468164
	O309	O	0.521671	0.479766	0.566737
	H310	H	0.536427	0.479961	0.571882
	H311	H	0.520581	0.484970	0.576262
	O312	O	0.029271	-0.041991	0.083036
	H313	H	0.030645	-0.044180	0.072364
	H314	H	0.025631	-0.050016	0.088074
	O315	O	1.041806	-0.148000	0.101345
	H316	H	1.036050	-0.161562	0.105997
	H317	H	1.031102	-0.131006	0.095037
	O318	O	1.094396	0.931413	0.849045
	H319	H	1.094847	0.931147	0.847773
	H320	H	1.076134	0.935282	0.842031
	O321	O	0.093841	0.073538	1.107621
	H322	H	0.088314	0.093897	1.109138
	H323	H	0.085326	0.064060	1.126146
	O324	O	0.472918	0.570319	0.485579
	H325	H	0.476396	0.569386	0.497753
	H326	H	0.472747	0.574485	0.486559
	O327	O	-0.061393	-0.051852	0.109423
	H328	H	-0.049104	-0.045878	0.115126
	H329	H	-0.069573	-0.052626	0.119577
	O330	O	0.502447	0.510802	0.552414
	H331	H	0.498288	0.501168	0.556286
	H332	H	0.507494	0.521319	0.553946
	O333	O	-0.472932	0.556785	0.370294
	H334	H	-0.473170	0.569800	0.362412
	H335	H	-0.476871	0.548383	0.364180
	O336	O	-0.040198	0.177602	-0.062184
	H337	H	-0.014155	0.180461	-0.066835
	H338	H	-0.039929	0.191412	-0.054870
	O339	O	0.946105	0.057262	0.936484
	H340	H	0.946156	0.056277	0.935068
	H341	H	0.950226	0.055137	0.939507
	O342	O	0.982190	1.106093	0.994975
	H343	H	0.977673	1.099849	0.984914
	H344	H	0.986434	1.097520	0.979608
	O345	O	1.031483	1.114259	0.099413
	H346	H	1.034055	1.102706	0.104158
	H347	H	1.033660	1.112034	0.108993
	O348	O	0.408500	0.426310	0.519380
	H349	H	0.406877	0.432567	0.516336
	H350	H	0.399114	0.412434	0.531540
	O351	O	0.537349	0.530987	0.555645
	H352	H	0.530425	0.523652	0.555928
	H353	H	0.549372	0.536739	0.548797
	O354	O	0.492227	0.599632	0.626491
	H355	H	0.511247	0.607934	0.623309
	H356	H	0.497526	0.601862	0.625092
	O357	O	0.899786	0.019011	0.979751
	H358	H	0.890728	0.036682	0.974014
	H359	H	0.903130	0.009743	0.980309
	O360	O	0.570912	0.579017	0.498045
	H361	H	0.573729	0.571916	0.500441
	H362	H	0.557954	0.582503	0.488145
	O363	O	0.999873	-0.032554	1.080958
	H364	H	1.006098	-0.038354	1.086068
	H365	H	1.009231	-0.027034	1.072297
	O366	O	0.521935	0.415950	0.558511
	H367	H	0.523964	0.416478	0.555651
	H368	H	0.513070	0.421188	0.556748
	O369	O	1.024801	0.018604	1.100975
	H370	H	1.022360	0.010661	1.097944
	H371	H	1.026695	0.016150	1.101297
	O372	O	0.083522	0.002786	-0.040350
	H373	H	0.092625	0.005626	-0.048620
	H374	H	0.086881	-0.008056	-0.042830
	O375	O	0.930252	-0.059798	0.017617
	H376	H	0.918265	-0.056873	0.023589
	H377	H	0.923833	-0.040397	0.008668
	O378	O	0.506388	0.576573	0.512081
	H379	H	0.499430	0.559969	0.500231
	H380	H	0.506399	0.584244	0.517302
	O381	O	0.415109	0.580102	0.380839
	H382	H	0.411265	0.590771	0.372873
	H383	H	0.399969	0.581979	0.383233
