data_Molecule from HDF5

_cell_length_a		16.618871
_cell_length_b		16.554373
_cell_length_c		16.512695
_cell_angle_alpha	90.052016
_cell_angle_beta	90.093048
_cell_angle_gamma	89.953933
_symmetry_space_group_name_H-M	'P 1'
_symmetry_Int_Tables_number		1

loop_
	_symmetry_equiv_pos_as_xyz
	x,y,z

loop_
	_atom_site_label
	_atom_site_type_symbol
	_atom_site_fract_x
	_atom_site_fract_y
	_atom_site_fract_z
	H0	H	0.375632	0.843167	0.713605
	H1	H	0.585417	0.154445	0.712871
	H2	H	0.586409	0.841277	0.269105
	H3	H	0.379610	0.156819	0.273964
	H4	H	0.699973	0.396284	0.833384
	H5	H	0.705514	0.606822	0.148116
	H6	H	0.262558	0.599402	0.834272
	H7	H	0.262021	0.395430	0.149821
	H8	H	0.825779	0.721976	0.383342
	H9	H	0.138195	0.716875	0.595031
	H10	H	0.823209	0.278651	0.595828
	H11	H	0.135305	0.275611	0.387833
	H12	H	0.823572	0.395357	0.712439
	H13	H	0.138470	0.598761	0.709909
	H14	H	0.825923	0.604744	0.268697
	H15	H	0.136292	0.392214	0.271181
	H16	H	0.379747	0.715761	0.833929
	H17	H	0.586250	0.719841	0.149551
	H18	H	0.584524	0.279817	0.833801
	H19	H	0.380817	0.280572	0.150574
	H20	H	0.701788	0.840544	0.386111
	H21	H	0.704006	0.152660	0.599690
	H22	H	0.258273	0.843416	0.597969
	H23	H	0.261370	0.155788	0.388884
	H24	H	0.877915	0.342507	0.211668
	H25	H	0.088377	0.654358	0.216327
	H26	H	0.082732	0.340201	0.774168
	H27	H	0.879424	0.656399	0.773081
	H28	H	0.202549	0.892144	0.334837
	H29	H	0.201935	0.102683	0.648533
	H30	H	0.758217	0.102874	0.335663
	H31	H	0.760963	0.893680	0.649028
	H32	H	0.325433	0.219689	0.887452
	H33	H	0.638363	0.216307	0.094037
	H34	H	0.325012	0.775536	0.098108
	H35	H	0.634617	0.775087	0.884810
	H36	H	0.324324	0.893243	0.213368
	H37	H	0.638456	0.098977	0.210486
	H38	H	0.325669	0.103698	0.770396
	H39	H	0.635003	0.892920	0.769926
	H40	H	0.874498	0.219999	0.336006
	H41	H	0.083313	0.216657	0.649984
	H42	H	0.086343	0.775412	0.335260
	H43	H	0.878857	0.778655	0.649117
	H44	H	0.199257	0.340390	0.890783
	H45	H	0.204618	0.654309	0.099952
	H46	H	0.758976	0.343905	0.097789
	H47	H	0.760080	0.655284	0.885767
	H48	H	0.393485	0.113600	0.590653
	H49	H	0.567987	0.886024	0.582601
	H50	H	0.571615	0.108762	0.407419
	H51	H	0.391486	0.886843	0.405051
	H52	H	0.572783	0.412608	0.103795
	H53	H	0.573353	0.579644	0.881517
	H54	H	0.392340	0.588866	0.106130
	H55	H	0.392568	0.408027	0.879769
	H56	H	0.092420	0.580262	0.397523
	H57	H	0.866946	0.586617	0.588125
	H58	H	0.093285	0.407363	0.585098
	H59	H	0.867897	0.408113	0.402417
	H60	H	0.092540	0.405197	0.582101
	H61	H	0.866452	0.595540	0.580420
	H62	H	0.094988	0.595182	0.403457
	H63	H	0.870486	0.410034	0.406015
	H64	H	0.390480	0.586518	0.105258
	H65	H	0.562096	0.588658	0.882527
	H66	H	0.568752	0.408084	0.103355
	H67	H	0.389167	0.406237	0.878007
	H68	H	0.573189	0.111438	0.400506
	H69	H	0.569987	0.886720	0.577249
	H70	H	0.398855	0.105754	0.574414
	H71	H	0.388815	0.884679	0.401775
	H72	H	0.897432	0.609598	0.078132
	H73	H	0.070974	0.387390	0.078503
	H74	H	0.068667	0.611195	0.898763
	H75	H	0.890349	0.385390	0.900274
	H76	H	0.071129	0.909062	0.604895
	H77	H	0.068923	0.088358	0.378998
	H78	H	0.888855	0.088940	0.605675
	H79	H	0.887755	0.906994	0.376764
	H80	H	0.592578	0.086451	0.901764
	H81	H	0.369516	0.090234	0.077252
	H82	H	0.592087	0.910579	0.085956
	H83	H	0.369929	0.917582	0.898368
	H84	H	0.592565	0.904574	0.077267
	H85	H	0.368525	0.085790	0.085228
	H86	H	0.595000	0.090612	0.900472
	H87	H	0.364609	0.901268	0.900710
	H88	H	0.891040	0.084398	0.602965
	H89	H	0.070353	0.086086	0.379031
	H90	H	0.070424	0.910573	0.603491
	H91	H	0.891175	0.914513	0.381259
	H92	H	0.073395	0.611240	0.905283
	H93	H	0.073027	0.386077	0.082460
	H94	H	0.890992	0.611300	0.077117
	H95	H	0.891213	0.385747	0.903055
	H96	H	0.381874	0.112912	0.575970
	H97	H	0.573365	0.884352	0.581652
	H98	H	0.566461	0.108174	0.401864
	H99	H	0.393377	0.887118	0.400572
	H100	H	0.574300	0.407381	0.106115
	H101	H	0.574952	0.593233	0.876562
	H102	H	0.393843	0.586296	0.103894
	H103	H	0.389033	0.410446	0.879114
	H104	H	0.087992	0.583848	0.412809
	H105	H	0.871590	0.584656	0.577089
	H106	H	0.092325	0.408551	0.582085
	H107	H	0.869565	0.412214	0.401125
	H108	H	0.893670	0.612724	0.083280
	H109	H	0.068913	0.386892	0.082846
	H110	H	0.076444	0.613669	0.897990
	H111	H	0.888545	0.385793	0.902216
	H112	H	0.069408	0.908793	0.602773
	H113	H	0.067774	0.086177	0.379994
	H114	H	0.893887	0.088693	0.603299
	H115	H	0.896297	0.907048	0.380074
	H116	H	0.593273	0.090261	0.904711
	H117	H	0.366346	0.094640	0.084835
	H118	H	0.589135	0.914441	0.076661
	H119	H	0.371871	0.910298	0.913472
	C120	C	0.359287	0.007570	0.613149
	C121	C	0.602344	0.988923	0.613240
	C122	C	0.602023	0.005562	0.370881
	C123	C	0.359655	0.989960	0.370721
	C124	C	0.602503	0.378396	-0.000136
	C125	C	0.602837	0.620094	0.983734
	C126	C	0.360363	0.618734	0.000874
	C127	C	0.360028	0.377208	0.983557
	C128	C	-0.010762	0.619641	0.370442
	C129	C	0.972285	0.619590	0.613084
	C130	C	-0.011154	0.376069	0.614258
	C131	C	0.972151	0.377303	0.371287
	C132	C	0.861040	0.508076	0.112366
	C133	C	0.103410	0.489960	0.114321
	C134	C	0.102365	0.506973	0.870906
	C135	C	0.859581	0.490080	0.870417
	C136	C	0.102409	0.877022	0.500111
	C137	C	0.101066	0.118943	0.483338
	C138	C	0.858496	0.119428	0.500630
	C139	C	0.859859	0.876947	0.483115
	C140	C	0.490206	0.120461	0.870314
	C141	C	0.472370	0.120131	0.113383
	C142	C	0.488594	0.876903	0.113351
	C143	C	0.471432	0.877145	0.871136
	C144	C	0.357008	0.889944	0.673600
	C145	C	0.604341	0.106993	0.673281
	C146	C	0.604469	0.888101	0.309840
	C147	C	0.359782	0.109110	0.312779
	C148	C	0.660695	0.377520	0.881071
	C149	C	0.664214	0.623781	0.101295
	C150	C	0.301962	0.619054	0.881675
	C151	C	0.301720	0.376222	0.102743
	C152	C	0.872714	0.681350	0.365979
	C153	C	0.091010	0.677488	0.613804
	C154	C	0.870332	0.317848	0.615014
	C155	C	0.089028	0.316212	0.369179
	C156	C	0.870618	0.375737	0.672980
	C157	C	0.091036	0.619088	0.671221
	C158	C	0.872578	0.622913	0.308914
	C159	C	0.089368	0.374168	0.311317
	C160	C	0.359882	0.676913	0.881597
	C161	C	0.604821	0.680009	0.102164
	C162	C	0.603279	0.319461	0.881117
	C163	C	0.360492	0.319291	0.102982
	C164	C	0.661940	0.887802	0.367942
	C165	C	0.663000	0.106233	0.616655
	C166	C	0.298978	0.890174	0.615936
	C167	C	0.301249	0.108713	0.369923
	C168	C	0.858742	0.389757	0.172265
	C169	C	0.106875	0.607394	0.176010
	C170	C	0.102098	0.387621	0.813500
	C171	C	0.859579	0.608896	0.811971
	C172	C	0.162604	0.873832	0.382035
	C173	C	0.161114	0.120858	0.601681
	C174	C	0.798282	0.121914	0.382839
	C175	C	0.800898	0.875096	0.601719
	C176	C	0.372187	0.179632	0.868863
	C177	C	0.591099	0.177683	0.113832
	C178	C	0.371565	0.816027	0.116313
	C179	C	0.588449	0.816017	0.867537
	C180	C	0.371365	0.874724	0.173563
	C181	C	0.591068	0.119381	0.171476
	C182	C	0.372329	0.122203	0.810607
	C183	C	0.588564	0.874693	0.810641
	C184	C	0.856055	0.179818	0.382790
	C185	C	0.102163	0.177464	0.602506
	C186	C	0.104839	0.815959	0.382177
	C187	C	0.859212	0.817892	0.601934
	C188	C	0.160016	0.387702	0.871300
	C189	C	0.164261	0.607433	0.117861
	C190	C	0.799911	0.390630	0.115656
	C191	C	0.800453	0.608501	0.868156
	C192	C	0.384401	0.089491	0.587855
	C193	C	0.577440	0.906894	0.587802
	C194	C	0.577392	0.087876	0.396092
	C195	C	0.383943	0.907323	0.395451
	C196	C	0.578616	0.402428	0.082872
	C197	C	0.577417	0.594541	0.901544
	C198	C	0.384885	0.594265	0.083608
	C199	C	0.383487	0.401239	0.900797
	C200	C	0.070749	0.593828	0.397023
	C201	C	0.889881	0.595806	0.588736
	C202	C	0.071266	0.400071	0.589974
	C203	C	0.890430	0.402726	0.396250
	C204	C	0.886769	0.589807	0.086884
	C205	C	0.078070	0.408260	0.088679
	C206	C	0.079363	0.590232	0.894151
	C207	C	0.883083	0.407218	0.894954
	C208	C	0.077517	0.902096	0.582179
	C209	C	0.076090	0.094053	0.400757
	C210	C	0.883790	0.094320	0.582672
	C211	C	0.884661	0.902252	0.400672
	C212	C	0.572329	0.095884	0.895093
	C213	C	0.389629	0.096899	0.089279
	C214	C	0.570127	0.902535	0.087428
	C215	C	0.389996	0.902486	0.896709
	Zn216	Zn	0.480821	-0.001451	0.741845
	Zn217	Zn	0.480650	-0.001724	0.242342
	Zn218	Zn	0.731940	0.499458	-0.008563
	Zn219	Zn	0.231083	0.498226	-0.007594
	Zn220	Zn	-0.019228	0.748636	0.491933
	Zn221	Zn	-0.020258	0.247608	0.492489
	Zn222	Zn	-0.019131	0.498065	0.742268
	Zn223	Zn	-0.018656	0.498602	0.241745
	Zn224	Zn	0.480928	0.748193	-0.007910
	Zn225	Zn	0.481806	0.249237	-0.008377
	Zn226	Zn	0.730689	-0.002778	0.491978
	Zn227	Zn	0.230445	-0.001095	0.491195
	N228	N	0.393831	0.963962	0.671900
	N229	N	0.567418	0.032930	0.671444
	N230	N	0.567902	0.962380	0.311564
	N231	N	0.395389	0.034206	0.313283
	N232	N	0.660671	0.413334	0.956109
	N233	N	0.663269	0.587543	0.026436
	N234	N	0.302004	0.583889	0.956934
	N235	N	0.301153	0.411460	0.027471
	N236	N	0.946525	0.679475	0.403703
	N237	N	0.016090	0.678067	0.578550
	N238	N	0.944911	0.317790	0.579551
	N239	N	0.015094	0.318050	0.405935
	N240	N	0.945486	0.411013	0.672885
	N241	N	0.016352	0.583742	0.671034
	N242	N	0.946127	0.585303	0.311768
	N243	N	0.015663	0.411458	0.312509
	N244	N	0.395254	0.677025	0.956815
	N245	N	0.567420	0.678008	0.027880
	N246	N	0.567856	0.319780	0.956160
	N247	N	0.395807	0.319593	0.027849
	N248	N	0.660566	0.961928	0.405271
	N249	N	0.662151	0.031698	0.580084
	N250	N	0.300081	0.964355	0.579151
	N251	N	0.300960	0.033464	0.404984
	N252	N	0.896078	0.463726	0.170313
	N253	N	0.069896	0.533291	0.173996
	N254	N	0.067295	0.462826	0.812918
	N255	N	0.895634	0.534265	0.813126
	N256	N	0.161290	0.911181	0.456235
	N257	N	0.160580	0.085319	0.526578
	N258	N	0.799546	0.085225	0.457242
	N259	N	0.801240	0.911012	0.526841
	N260	N	0.446487	0.178764	0.905217
	N261	N	0.516121	0.178722	0.078841
	N262	N	0.445591	0.817384	0.079454
	N263	N	0.514619	0.817372	0.904513
	N264	N	0.445249	0.911799	0.171845
	N265	N	0.516089	0.084601	0.171691
	N266	N	0.446751	0.086198	0.811249
	N267	N	0.514862	0.911963	0.812714
	N268	N	0.892566	0.178612	0.457198
	N269	N	0.065464	0.176514	0.527839
	N270	N	0.068219	0.817619	0.456528
	N271	N	0.894991	0.818792	0.526920
	N272	N	0.160639	0.463123	0.906153
	N273	N	0.162485	0.533353	0.080295
	N274	N	0.800954	0.465340	0.079350
	N275	N	0.800342	0.533681	0.903590
	O276	O	-0.176555	1.011064	0.033169
	H277	H	-0.159814	1.003913	0.029433
	H278	H	-0.177671	0.994865	0.035596
	O279	O	0.402017	0.517730	0.473318
	H280	H	0.396767	0.523623	0.476118
	H281	H	0.410019	0.531424	0.487662
	O282	O	0.911854	-0.215499	0.951248
	H283	H	0.906166	-0.219373	0.953404
	H284	H	0.945233	-0.219068	0.958414
	O285	O	0.788216	0.794716	0.187262
	H286	H	0.786717	0.810144	0.165062
	H287	H	0.833277	0.799180	0.193773
	O288	O	0.453357	0.649395	0.311004
	H289	H	0.463104	0.637697	0.316783
	H290	H	0.472543	0.662530	0.309916
	O291	O	0.268333	0.290656	0.527990
	H292	H	0.260482	0.276074	0.524201
	H293	H	0.278661	0.284195	0.537416
	O294	O	1.192527	-0.104624	1.096037
	H295	H	1.193737	-0.093735	1.084907
	H296	H	1.202904	-0.108752	1.116770
	O297	O	0.534556	0.709073	0.419559
	H298	H	0.551974	0.708880	0.416828
	H299	H	0.531900	0.701285	0.429397
	O300	O	-0.227026	0.206170	0.786764
	H301	H	-0.251171	0.221121	0.758012
	H302	H	-0.218924	0.169276	0.780601
	O303	O	0.248129	0.269309	0.724266
	H304	H	0.226172	0.240233	0.754390
	H305	H	0.275723	0.271009	0.709839
	O306	O	0.937926	0.014555	0.910741
	H307	H	0.952538	0.005935	0.901352
	H308	H	0.943224	0.018773	0.904316
	O309	O	0.353659	0.381058	0.701510
	H310	H	0.343151	0.371462	0.694967
	H311	H	0.348086	0.356893	0.721099
	O312	O	0.692981	0.537582	0.699209
	H313	H	0.715340	0.556055	0.723924
	H314	H	0.698310	0.565660	0.692646
	O315	O	0.417325	1.727315	0.554384
	H316	H	0.436092	1.718485	0.540295
	H317	H	0.406035	1.734736	0.545264
	O318	O	0.468410	0.461284	0.283525
	H319	H	0.465123	0.467929	0.281035
	H320	H	0.469173	0.460993	0.290915
	O321	O	0.295463	0.687229	0.678313
	H322	H	0.309012	0.659191	0.663933
	H323	H	0.322309	0.684474	0.654700
	O324	O	0.756359	0.979851	-0.137032
	H325	H	0.751213	0.979762	-0.140442
	H326	H	0.772460	0.973416	-0.129895
	O327	O	-0.241508	-0.219434	1.021197
	H328	H	-0.227570	-0.226134	1.036767
	H329	H	-0.255813	-0.244876	1.018366
	O330	O	0.460618	0.556738	0.535583
	H331	H	0.457551	0.534408	0.532069
	H332	H	0.479548	0.549581	0.544592
	O333	O	-0.233835	0.217931	0.967793
	H334	H	-0.253151	0.234874	0.954004
	H335	H	-0.234093	0.209454	0.927565
	O336	O	0.698498	0.415775	0.275694
	H337	H	0.716123	0.392216	0.261664
	H338	H	0.707072	0.432191	0.268902
	O339	O	1.015776	0.211113	0.885674
	H340	H	1.008171	0.213657	0.908774
	H341	H	1.008814	0.212710	0.865970
	O342	O	0.205511	-0.226886	-0.042540
	H343	H	0.205372	-0.225555	-0.054627
	H344	H	0.224056	-0.246906	-0.035452
	O345	O	0.039262	0.943774	1.215715
	H346	H	0.044935	0.960747	1.206750
	H347	H	0.050823	0.954248	1.217826
	O348	O	0.562220	0.573044	0.290072
	H349	H	0.560395	0.579022	0.277994
	H350	H	0.553765	0.571464	0.295019
	O351	O	0.952709	0.787367	0.200760
	H352	H	0.976083	0.806058	0.202070
	H353	H	0.965297	0.775716	0.219620
	O354	O	0.000873	0.208143	1.201472
	H355	H	0.002984	0.205433	1.193827
	H356	H	0.008322	0.214423	1.213387
	O357	O	0.923330	1.052609	0.222882
	H358	H	0.902104	1.048970	0.216894
	H359	H	0.932991	1.052087	0.231832
	O360	O	0.246962	0.449464	0.449958
	H361	H	0.248396	0.465548	0.481338
	H362	H	0.239002	0.439349	0.463492
	O363	O	-0.078673	-0.078239	-0.220484
	H364	H	-0.048770	-0.092467	-0.222011
	H365	H	-0.058985	-0.058941	-0.229826
	O366	O	0.494508	0.329340	0.276707
	H367	H	0.501143	0.325436	0.271065
	H368	H	0.489877	0.321301	0.264029
	O369	O	1.142947	0.155634	-0.205781
	H370	H	1.129630	0.151699	-0.186111
	H371	H	1.137500	0.136583	-0.189704
	O372	O	0.928248	1.040560	0.050698
	H373	H	0.937947	1.054223	0.032900
	H374	H	0.933039	1.034928	0.044076
	O375	O	0.936356	0.224422	0.042078
	H376	H	0.923159	0.224586	0.050165
	H377	H	0.924316	0.221198	0.033502
	O378	O	0.524197	0.708463	0.674532
	H379	H	0.517386	0.718548	0.683813
	H380	H	0.508807	0.694602	0.671122
	O381	O	0.198814	0.777631	1.206647
	H382	H	0.206241	0.786182	1.233171
	H383	H	0.199992	0.771313	1.215815
	O384	O	0.888783	0.093871	0.875668
	H385	H	0.893510	0.086280	0.861780
	H386	H	0.883046	0.074335	0.886723
	O387	O	1.040365	0.765007	0.040888
	H388	H	1.068096	0.770032	0.043474
	H389	H	1.044152	0.767900	0.060015
	O390	O	0.600792	0.275630	0.463660
	H391	H	0.600290	0.292773	0.432164
	H392	H	0.627712	0.255426	0.460152
	O393	O	0.262061	0.514514	0.613734
	H394	H	0.272595	0.496685	0.617071
	H395	H	0.249884	0.521483	0.634466
	O396	O	0.571002	1.512864	1.569853
	H397	H	0.583906	1.499713	1.564451
	H398	H	0.580904	1.501841	1.571157
	O399	O	0.192990	-0.213964	0.780638
	H400	H	0.218908	-0.232650	0.753300
	H401	H	0.194942	-0.218619	0.798964
	O402	O	0.611483	0.339665	0.369351
	H403	H	0.596830	0.351649	0.368671
	H404	H	0.628314	0.321083	0.343680
	O405	O	1.008531	-0.217852	0.775729
	H406	H	1.020961	-0.227756	0.783772
	H407	H	1.021012	-0.228127	0.763284
	O408	O	-0.235519	-0.033236	0.208709
	H409	H	-0.242832	-0.047557	0.220768
	H410	H	-0.251027	-0.032946	0.196103
	O411	O	0.451407	0.527814	0.706686
	H412	H	0.465681	0.513097	0.714699
	H413	H	0.450375	0.510369	0.707144
	O414	O	0.776321	0.081946	1.066688
	H415	H	0.781213	0.067609	1.050392
	H416	H	0.772289	0.070351	1.045857
	O417	O	0.634427	0.636279	0.415446
	H418	H	0.651500	0.652138	0.403070
	H419	H	0.638336	0.637982	0.430063
	O420	O	0.691486	0.704695	0.697931
	H421	H	0.719054	0.739967	0.732035
	H422	H	0.651723	0.710321	0.691758
	O423	O	0.168709	0.190006	1.190942
	H424	H	0.197799	0.219284	1.217358
	H425	H	0.150598	0.183818	1.186163
	O426	O	0.699564	0.712767	0.522684
	H427	H	0.706011	0.712801	0.531871
	H428	H	0.717775	0.727322	0.537265
	O429	O	1.120838	0.983882	0.909990
	H430	H	1.126364	0.973960	0.910400
	H431	H	1.126988	0.979303	0.905699
	O432	O	0.273019	0.292619	0.284590
	H433	H	0.292488	0.297012	0.297455
	H434	H	0.286600	0.315850	0.310667
	O435	O	0.201267	1.214454	0.029184
	H436	H	0.214028	1.235448	0.031699
	H437	H	0.199335	1.216035	0.047858
	O438	O	0.040861	0.011091	-0.134591
	H439	H	0.051912	0.017476	-0.132754
	H440	H	0.032555	0.024778	-0.142233
	O441	O	0.264896	0.716442	0.462911
	H442	H	0.237297	0.737328	0.455967
	H443	H	0.278945	0.713297	0.448602
	O444	O	0.272210	0.527492	0.281753
	H445	H	0.264230	0.516310	0.280603
	H446	H	0.261896	0.520294	0.287905
	O447	O	-0.214777	0.811418	0.804311
	H448	H	-0.204330	0.829956	0.830208
	H449	H	-0.188251	0.831202	0.815326
	O450	O	0.276389	0.652535	1.375222
	H451	H	0.309267	0.659908	1.369109
	H452	H	0.279730	0.613457	1.383128
	O453	O	0.610962	0.274690	0.510699
	H454	H	0.613917	0.275376	0.492736
	H455	H	0.628588	0.270611	0.495081
	O456	O	-0.064123	0.179745	0.802711
	H457	H	-0.075386	0.187829	0.798820
	H458	H	-0.078774	0.189627	0.796467
	O459	O	1.198846	1.027369	0.212644
	H460	H	1.203010	1.053612	0.201301
	H461	H	1.216029	1.028922	0.232023
	O462	O	0.582091	0.531892	0.414591
	H463	H	0.585024	0.536664	0.417265
	H464	H	0.592580	0.551574	0.418223
	O465	O	0.647290	-0.693557	-0.340410
	H466	H	0.630512	-0.694084	-0.374603
	H467	H	0.639432	-0.660335	-0.344539
	O468	O	0.605055	0.465298	0.467659
	H469	H	0.605257	0.475689	0.469235
	H470	H	0.610727	0.478120	0.467140
	O471	O	0.432247	0.324283	0.690290
	H472	H	0.455289	0.326282	0.691198
	H473	H	0.434919	0.308938	0.671888
	O474	O	0.396489	0.298618	0.411673
	H475	H	0.411739	0.316289	0.406693
	H476	H	0.406850	0.303013	0.422076
	O477	O	0.701061	0.224398	1.221245
	H478	H	0.720097	0.200679	1.201096
	H479	H	0.721340	0.225002	1.202636
	O480	O	0.677280	0.447252	0.584358
	H481	H	0.686257	0.468510	0.594933
	H482	H	0.684456	0.436340	0.563892
	O483	O	1.208385	1.067676	0.941874
	H484	H	1.212574	1.084843	0.953206
	H485	H	1.213969	1.050726	0.956195
	O486	O	1.192463	-0.031934	0.780076
	H487	H	1.196690	-0.040982	0.785112
	H488	H	1.209597	-0.046214	0.768899
	O489	O	1.025285	0.936659	0.009396
	H490	H	1.024626	0.944332	-0.005967
	H491	H	1.020854	0.940732	0.014360
