data_Molecule from HDF5

_cell_length_a		16.459400
_cell_length_b		16.392683
_cell_length_c		16.392543
_cell_angle_alpha	89.883441
_cell_angle_beta	89.886143
_cell_angle_gamma	89.906591
_symmetry_space_group_name_H-M	'P 1'
_symmetry_Int_Tables_number		1

loop_
	_symmetry_equiv_pos_as_xyz
	x,y,z

loop_
	_atom_site_label
	_atom_site_type_symbol
	_atom_site_fract_x
	_atom_site_fract_y
	_atom_site_fract_z
	H0	H	0.382401	0.835195	0.739676
	H1	H	0.591859	0.152963	0.735755
	H2	H	0.594274	0.835452	0.295215
	H3	H	0.381660	0.152352	0.295131
	H4	H	0.709759	0.387413	0.858447
	H5	H	0.712933	0.605255	0.172349
	H6	H	0.264724	0.603040	0.858821
	H7	H	0.265573	0.388402	0.175051
	H8	H	0.830697	0.717797	0.408119
	H9	H	0.145643	0.717647	0.622943
	H10	H	0.831960	0.271226	0.620729
	H11	H	0.147679	0.273288	0.408835
	H12	H	0.831887	0.386015	0.739244
	H13	H	0.145093	0.602995	0.739922
	H14	H	0.831274	0.603181	0.291541
	H15	H	0.147253	0.390059	0.292817
	H16	H	0.378811	0.719474	0.859183
	H17	H	0.594487	0.716809	0.173975
	H18	H	0.591476	0.274015	0.858027
	H19	H	0.382058	0.273195	0.175096
	H20	H	0.714345	0.837468	0.406463
	H21	H	0.708953	0.153274	0.621617
	H22	H	0.264180	0.835617	0.626894
	H23	H	0.265109	0.151195	0.410007
	H24	H	0.884976	0.337327	0.237783
	H25	H	0.096254	0.653803	0.238652
	H26	H	0.096127	0.338206	0.793786
	H27	H	0.877739	0.650752	0.789319
	H28	H	0.214652	0.882961	0.360119
	H29	H	0.209558	0.099086	0.673881
	H30	H	0.765929	0.103771	0.357771
	H31	H	0.765417	0.887285	0.672912
	H32	H	0.329850	0.214767	0.911571
	H33	H	0.644226	0.217460	0.123483
	H34	H	0.332323	0.766975	0.128296
	H35	H	0.645138	0.768608	0.907843
	H36	H	0.332603	0.881795	0.245331
	H37	H	0.644178	0.101290	0.240508
	H38	H	0.329704	0.097607	0.796097
	H39	H	0.645900	0.885339	0.791924
	H40	H	0.884375	0.217426	0.357117
	H41	H	0.097672	0.217362	0.671770
	H42	H	0.094490	0.772655	0.357969
	H43	H	0.876921	0.768912	0.672180
	H44	H	0.211974	0.338322	0.909723
	H45	H	0.212838	0.651706	0.126012
	H46	H	0.768170	0.336328	0.122387
	H47	H	0.760218	0.649938	0.903555
	H48	H	0.396554	0.107333	0.605048
	H49	H	0.577348	0.881402	0.605598
	H50	H	0.579842	0.106423	0.434418
	H51	H	0.402476	0.880002	0.426880
	H52	H	0.576484	0.407785	0.129934
	H53	H	0.575508	0.580524	0.904129
	H54	H	0.399156	0.570903	0.125195
	H55	H	0.393919	0.399652	0.899194
	H56	H	0.102437	0.587973	0.428120
	H57	H	0.874990	0.581381	0.606932
	H58	H	0.099931	0.413066	0.607185
	H59	H	0.877113	0.404454	0.429989
	H60	H	0.105461	0.401094	0.608944
	H61	H	0.876160	0.584462	0.598064
	H62	H	0.098854	0.581030	0.431762
	H63	H	0.877656	0.410064	0.425608
	H64	H	0.409776	0.584196	0.126234
	H65	H	0.574005	0.579425	0.904713
	H66	H	0.575893	0.402717	0.131234
	H67	H	0.395226	0.413876	0.905131
	H68	H	0.578423	0.109703	0.423951
	H69	H	0.577632	0.881586	0.601566
	H70	H	0.399150	0.106099	0.607776
	H71	H	0.405538	0.883115	0.433937
	H72	H	0.902817	0.606771	0.102364
	H73	H	0.079326	0.380834	0.107416
	H74	H	0.073165	0.608014	0.926217
	H75	H	0.891873	0.379575	0.931463
	H76	H	0.071025	0.911883	0.625192
	H77	H	0.078112	0.084378	0.401017
	H78	H	0.901318	0.075093	0.625931
	H79	H	0.905674	0.908240	0.404687
	H80	H	0.602308	0.080528	0.922170
	H81	H	0.374527	0.081625	0.105456
	H82	H	0.593887	0.914833	0.098316
	H83	H	0.375446	0.908971	0.920737
	H84	H	0.601190	0.909061	0.111986
	H85	H	0.374240	0.082357	0.105057
	H86	H	0.603673	0.089229	0.924967
	H87	H	0.374706	0.899590	0.931863
	H88	H	0.906225	0.088325	0.628678
	H89	H	0.079895	0.079422	0.401699
	H90	H	0.072798	0.899113	0.630429
	H91	H	0.899735	0.902780	0.401259
	H92	H	0.073259	0.606813	0.932004
	H93	H	0.072455	0.383395	0.105477
	H94	H	0.896540	0.608354	0.099379
	H95	H	0.902891	0.379275	0.920351
	H96	H	0.399868	0.106517	0.603496
	H97	H	0.580072	0.879608	0.603531
	H98	H	0.570623	0.104560	0.429242
	H99	H	0.397506	0.880670	0.433401
	H100	H	0.580585	0.405278	0.131950
	H101	H	0.573795	0.581133	0.904529
	H102	H	0.394445	0.585346	0.132831
	H103	H	0.407613	0.404239	0.905384
	H104	H	0.101596	0.580652	0.424168
	H105	H	0.879501	0.575641	0.600302
	H106	H	0.100738	0.404306	0.597240
	H107	H	0.874356	0.404410	0.423214
	H108	H	0.898215	0.610684	0.106420
	H109	H	0.078162	0.383718	0.100360
	H110	H	0.078283	0.609202	0.929225
	H111	H	0.905870	0.386201	0.933960
	H112	H	0.083099	0.907841	0.631496
	H113	H	0.074948	0.080055	0.403341
	H114	H	0.892426	0.085036	0.631226
	H115	H	0.897860	0.910435	0.402705
	H116	H	0.599596	0.082663	0.931211
	H117	H	0.375444	0.082086	0.104561
	H118	H	0.600342	0.899514	0.098609
	H119	H	0.380174	0.912691	0.934369
	C120	C	0.365871	0.001959	0.638774
	C121	C	0.610180	0.985636	0.636568
	C122	C	0.610374	0.002988	0.395127
	C123	C	0.367476	0.985306	0.396846
	C124	C	0.609489	0.372502	0.026129
	C125	C	0.609116	0.615319	1.007735
	C126	C	0.366449	0.615719	0.024655
	C127	C	0.366144	0.373352	1.008079
	C128	C	-0.003131	0.616799	0.394164
	C129	C	0.980032	0.615244	0.636620
	C130	C	-0.001923	0.372553	0.637171
	C131	C	0.981059	0.374151	0.393863
	C132	C	0.867060	0.504337	0.136500
	C133	C	0.110076	0.486741	0.137886
	C134	C	0.109037	0.504076	0.895687
	C135	C	0.865512	0.485245	0.893665
	C136	C	0.109875	0.872294	0.525139
	C137	C	0.110145	0.114144	0.506616
	C138	C	0.867561	0.116528	0.524025
	C139	C	0.866808	0.873345	0.506738
	C140	C	0.496754	0.115428	0.894549
	C141	C	0.478729	0.115213	0.138118
	C142	C	0.495994	0.872358	0.138483
	C143	C	0.480248	0.872626	0.894810
	C144	C	0.363943	0.882873	0.699569
	C145	C	0.610658	0.105401	0.696359
	C146	C	0.613250	0.883541	0.334592
	C147	C	0.363853	0.104481	0.335266
	C148	C	0.669422	0.369508	0.906342
	C149	C	0.671836	0.621271	0.125352
	C150	C	0.304762	0.620541	0.906519
	C151	C	0.305859	0.370516	0.127393
	C152	C	0.878390	0.677981	0.390213
	C153	C	0.097991	0.677618	0.640936
	C154	C	0.879207	0.311555	0.639542
	C155	C	0.100134	0.313513	0.390798
	C156	C	0.879369	0.368513	0.698867
	C157	C	0.097906	0.620000	0.699057
	C158	C	0.878697	0.620530	0.332251
	C159	C	0.100052	0.371806	0.333173
	C160	C	0.361870	0.678620	0.906652
	C161	C	0.612616	0.676973	0.126285
	C162	C	0.610820	0.312743	0.906096
	C163	C	0.363677	0.312948	0.127468
	C164	C	0.672955	0.884561	0.390221
	C165	C	0.668970	0.105506	0.639365
	C166	C	0.305208	0.883044	0.642910
	C167	C	0.305762	0.103834	0.392555
	C168	C	0.865976	0.384710	0.197640
	C169	C	0.113592	0.605833	0.198951
	C170	C	0.113606	0.385435	0.834258
	C171	C	0.860642	0.603328	0.830566
	C172	C	0.172983	0.866858	0.407083
	C173	C	0.169967	0.116898	0.626018
	C174	C	0.806575	0.120709	0.405429
	C175	C	0.805545	0.869512	0.625587
	C176	C	0.377320	0.174909	0.892964
	C177	C	0.597029	0.176816	0.141352
	C178	C	0.379050	0.808568	0.144459
	C179	C	0.598141	0.809778	0.890554
	C180	C	0.379178	0.865899	0.203066
	C181	C	0.596941	0.118993	0.199714
	C182	C	0.377527	0.116624	0.835408
	C183	C	0.598680	0.868002	0.832741
	C184	C	0.865555	0.177461	0.404846
	C185	C	0.114283	0.176007	0.624909
	C186	C	0.113226	0.811544	0.405981
	C187	C	0.861508	0.810582	0.625121
	C188	C	0.171040	0.385482	0.892081
	C189	C	0.171859	0.604990	0.142600
	C190	C	0.807803	0.384395	0.140209
	C191	C	0.802091	0.602982	0.887675
	C192	C	0.391319	0.085072	0.612794
	C193	C	0.585584	0.902539	0.611008
	C194	C	0.583889	0.085370	0.421522
	C195	C	0.394265	0.902646	0.423563
	C196	C	0.584843	0.397919	0.109134
	C197	C	0.582169	0.588137	0.925817
	C198	C	0.393387	0.588114	0.106738
	C199	C	0.391528	0.398663	0.924763
	C200	C	0.079355	0.590771	0.420354
	C201	C	0.898163	0.588196	0.609521
	C202	C	0.080368	0.398665	0.611778
	C203	C	0.898112	0.399191	0.419147
	C204	C	0.891777	0.586909	0.110276
	C205	C	0.084065	0.404062	0.111759
	C206	C	0.082527	0.586577	0.921764
	C207	C	0.892438	0.403151	0.920862
	C208	C	0.083259	0.898709	0.607469
	C209	C	0.084869	0.088409	0.423572
	C210	C	0.892842	0.090428	0.606939
	C211	C	0.893378	0.899654	0.424366
	C212	C	0.580227	0.091063	0.919201
	C213	C	0.396178	0.089456	0.112458
	C214	C	0.577295	0.899883	0.110836
	C215	C	0.398349	0.899280	0.921410
	Zn216	Zn	0.488968	-0.006342	0.765587
	Zn217	Zn	0.487663	-0.006382	0.267570
	Zn218	Zn	0.737642	0.494280	0.016352
	Zn219	Zn	0.237447	0.495497	0.016968
	Zn220	Zn	-0.012076	0.744875	0.515789
	Zn221	Zn	-0.009293	0.244096	0.514791
	Zn222	Zn	-0.011450	0.494602	0.766228
	Zn223	Zn	-0.010719	0.496018	0.265126
	Zn224	Zn	0.488346	0.743707	0.016521
	Zn225	Zn	0.486659	0.244530	0.016474
	Zn226	Zn	0.738928	-0.005064	0.515956
	Zn227	Zn	0.238059	-0.007283	0.516936
	N228	N	0.401111	0.957885	0.697102
	N229	N	0.575053	0.029647	0.695103
	N230	N	0.575174	0.958040	0.337395
	N231	N	0.401382	0.029470	0.337901
	N232	N	0.668771	0.405862	0.981845
	N233	N	0.669849	0.583783	0.050516
	N234	N	0.307588	0.582183	0.981057
	N235	N	0.307089	0.407374	0.051982
	N236	N	0.952826	0.675902	0.427855
	N237	N	0.023505	0.675010	0.602973
	N238	N	0.953977	0.313607	0.602306
	N239	N	0.025226	0.314952	0.428024
	N240	N	0.954218	0.405580	0.697612
	N241	N	0.023340	0.582417	0.696767
	N242	N	0.953462	0.583122	0.334633
	N243	N	0.025072	0.408802	0.335011
	N244	N	0.399394	0.675828	0.981364
	N245	N	0.574506	0.673546	0.051925
	N246	N	0.574346	0.314198	0.981533
	N247	N	0.400279	0.314694	0.052167
	N248	N	0.671512	0.960048	0.426965
	N249	N	0.668889	0.030038	0.603057
	N250	N	0.306514	0.958264	0.605738
	N251	N	0.307845	0.028639	0.429789
	N252	N	0.901940	0.460296	0.195666
	N253	N	0.075922	0.531242	0.196039
	N254	N	0.075794	0.460083	0.836371
	N255	N	0.899407	0.529102	0.834132
	N256	N	0.170998	0.903609	0.482131
	N257	N	0.167653	0.079273	0.551309
	N258	N	0.807884	0.083418	0.480575
	N259	N	0.808494	0.907652	0.551037
	N260	N	0.452689	0.174509	0.928889
	N261	N	0.522517	0.174635	0.103818
	N262	N	0.452763	0.812339	0.104956
	N263	N	0.523534	0.812540	0.928468
	N264	N	0.452707	0.904967	0.199263
	N265	N	0.522263	0.081517	0.197933
	N266	N	0.452927	0.080527	0.836218
	N267	N	0.524473	0.906344	0.835414
	N268	N	0.902596	0.175155	0.479745
	N269	N	0.077588	0.174403	0.549744
	N270	N	0.074541	0.814779	0.480363
	N271	N	0.898980	0.812669	0.550252
	N272	N	0.168425	0.460310	0.929533
	N273	N	0.169872	0.529951	0.105432
	N274	N	0.808032	0.459640	0.103344
	N275	N	0.804959	0.528475	0.926185
	O276	O	0.297337	0.500896	0.404208
	H277	H	0.311705	0.471494	0.407086
	H278	H	0.297143	0.501818	0.399303
	O279	O	1.158179	-0.188261	0.839284
	H280	H	1.169829	-0.138992	0.828288
	H281	H	1.167036	-0.195696	0.882209
	O282	O	-0.224240	1.206816	0.965280
	H283	H	-0.261019	1.226317	0.966611
	H284	H	-0.232747	1.171157	0.997553
	O285	O	0.123819	1.032416	0.005190
	H286	H	0.114499	1.033274	0.009848
	H287	H	0.106459	1.041441	0.009031
	O288	O	1.515822	1.649218	-0.515463
	H289	H	1.506323	1.657028	-0.519758
	H290	H	1.500467	1.648197	-0.501326
	O291	O	0.636021	0.370666	0.597993
	H292	H	0.636214	0.384761	0.590284
	H293	H	0.633206	0.379581	0.583729
	O294	O	-0.034031	0.213600	0.793444
	H295	H	-0.085728	0.201050	0.805486
	H296	H	-0.039509	0.250145	0.757914
	O297	O	0.472058	0.673422	0.312579
	H298	H	0.456187	0.670340	0.327362
	H299	H	0.479434	0.683521	0.288513
	O300	O	0.938526	0.854748	0.890069
	H301	H	0.942394	0.861883	0.898540
	H302	H	0.963735	0.829365	0.878492
	O303	O	0.795073	0.801969	0.207274
	H304	H	0.815570	0.807535	0.211765
	H305	H	0.780730	0.790529	0.168152
	O306	O	0.536487	0.532343	0.309721
	H307	H	0.539435	0.545790	0.306832
	H308	H	0.566508	0.525892	0.316593
	O309	O	0.990018	-0.015212	-0.162177
	H310	H	0.982713	-0.015142	-0.169384
	H311	H	0.972744	-0.012600	-0.162259
	O312	O	-0.233181	1.082999	1.061976
	H313	H	-0.243245	1.061768	1.093818
	H314	H	-0.227797	1.050527	1.048085
	O315	O	0.462043	0.453724	0.493224
	H316	H	0.469751	0.456244	0.480677
	H317	H	0.451405	0.445873	0.491788
	O318	O	1.001041	-0.223578	-0.197547
	H319	H	1.043499	-0.208924	-0.186223
	H320	H	1.008643	-0.258774	-0.228281
	O321	O	0.194786	-0.028511	-0.186375
	H322	H	0.186778	-0.008616	-0.193376
	H323	H	0.203429	-0.014175	-0.184632
	O324	O	0.677183	0.495776	0.490806
	H325	H	0.670866	0.495363	0.474896
	H326	H	0.674709	0.489707	0.472270
	O327	O	0.710101	0.471700	0.296481
	H328	H	0.716452	0.441852	0.290353
	H329	H	0.728363	0.446777	0.277736
	O330	O	0.172219	1.173988	0.198957
	H331	H	0.156108	1.178873	0.205156
	H332	H	0.161964	1.180981	0.173265
	O333	O	0.278169	0.474894	0.726387
	H334	H	0.254962	0.468635	0.747361
	H335	H	0.272153	0.465575	0.704920
	O336	O	-0.231340	-0.045173	-0.017979
	H337	H	-0.236928	-0.090482	-0.015285
	H338	H	-0.233448	-0.046356	-0.037220
	O339	O	0.029498	0.884171	0.147145
	H340	H	0.045011	0.903439	0.151661
	H341	H	0.047832	0.884801	0.155770
	O342	O	-0.219529	1.005885	0.823187
	H343	H	-0.229200	1.010495	0.798131
	H344	H	-0.215023	1.017792	0.826205
	O345	O	0.495282	0.465319	-0.320743
	H346	H	0.516154	0.480686	-0.321782
	H347	H	0.474259	0.456751	-0.319377
	O348	O	0.520646	0.302845	0.402797
	H349	H	0.525750	0.287898	0.388970
	H350	H	0.521877	0.306775	0.416054
	O351	O	0.626708	1.283049	1.480174
	H352	H	0.638336	1.292170	1.500950
	H353	H	0.646433	1.288532	1.493848
	O354	O	0.497200	0.661544	-0.272278
	H355	H	0.482107	0.660560	-0.251720
	H356	H	0.485762	0.657591	-0.283717
	O357	O	-0.025639	-0.217445	1.217011
	H358	H	-0.022472	-0.242490	1.243076
	H359	H	-0.031324	-0.200806	1.209897
	O360	O	0.300094	0.302787	0.707563
	H361	H	0.288556	0.298042	0.731535
	H362	H	0.334138	0.304621	0.710496
	O363	O	-0.006449	0.196030	1.195759
	H364	H	-0.010509	0.217663	1.184674
	H365	H	-0.022381	0.190717	1.186076
	O366	O	0.677480	0.309479	0.326140
	H367	H	0.663072	0.290982	0.309401
	H368	H	0.672345	0.297259	0.364024
	O369	O	0.693092	0.493967	0.704433
	H370	H	0.690861	0.526768	0.702839
	H371	H	0.711164	0.514698	0.727910
	O372	O	0.949113	-0.029071	1.043056
	H373	H	0.931882	-0.055413	1.044526
	H374	H	0.944986	-0.032073	1.051031
	O375	O	0.272921	0.639168	0.428312
	H376	H	0.278134	0.623785	0.415558
	H377	H	0.240961	0.656077	0.415673
	O378	O	0.707754	0.447172	0.551034
	H379	H	0.709466	0.457004	0.557328
	H380	H	0.708708	0.474352	0.555138
	O381	O	0.322074	0.561325	0.591217
	H382	H	0.314366	0.532401	0.582380
	H383	H	0.327315	0.578894	0.582894
	O384	O	0.286931	0.296505	0.540649
	H385	H	0.278304	0.286138	0.561409
	H386	H	0.294591	0.285092	0.560013
	O387	O	0.036015	0.034072	1.147179
	H388	H	0.022446	0.035081	1.151201
	H389	H	0.038115	0.026824	1.138704
	O390	O	0.207348	0.013489	0.232213
	H391	H	0.207611	0.028443	0.243197
	H392	H	0.220241	0.036203	0.247331
	O393	O	0.933631	1.178585	1.052364
	H394	H	0.910246	1.178791	1.037687
	H395	H	0.946526	1.169733	1.033191
	O396	O	1.045860	0.206287	-0.047442
	H397	H	1.045114	0.208552	-0.066008
	H398	H	1.033459	0.189058	-0.059096
	O399	O	1.192856	0.204219	1.034701
	H400	H	1.192367	0.205612	1.040088
	H401	H	1.187059	0.214114	1.026402
	O402	O	0.774599	0.956128	1.228070
	H403	H	0.748732	0.950755	1.256616
	H404	H	0.793351	0.931026	1.228967
	O405	O	1.365258	1.328635	0.436432
	H406	H	1.373276	1.332495	0.425098
	H407	H	1.364119	1.331254	0.441449
	O408	O	0.348415	-0.424948	0.332521
	H409	H	0.367899	-0.414473	0.323898
	H410	H	0.349678	-0.446858	0.323014
	O411	O	1.038733	0.980826	0.027443
	H412	H	1.019968	0.974991	0.015969
	H413	H	1.032387	0.971936	0.049501
	O414	O	0.383531	0.677607	0.497190
	H415	H	0.376431	0.671306	0.506522
	H416	H	0.365603	0.655516	0.487952
	O417	O	0.803429	0.152894	0.824638
	H418	H	0.778965	0.174349	0.837904
	H419	H	0.803796	0.124832	0.842380
	O420	O	0.195678	-0.076041	0.102192
	H421	H	0.180031	-0.050051	0.086124
	H422	H	0.209517	-0.053866	0.133542
	O423	O	0.642192	0.584923	0.710658
	H424	H	0.624508	0.592124	0.718830
	H425	H	0.652158	0.604073	0.678370
	O426	O	0.569471	0.702970	0.587034
	H427	H	0.559774	0.716007	0.599184
	H428	H	0.576873	0.686512	0.593003
	O429	O	-0.006066	0.829116	-0.021573
	H430	H	0.006871	0.825879	-0.037579
	H431	H	0.023911	0.831914	-0.001968
	O432	O	0.388703	0.604946	0.584750
	H433	H	0.382663	0.583024	0.602889
	H434	H	0.372612	0.624404	0.579862
	O435	O	0.680616	0.659826	0.553421
	H436	H	0.693782	0.675163	0.533597
	H437	H	0.661842	0.650183	0.546778
	O438	O	-0.225726	-0.220048	0.035643
	H439	H	-0.223898	-0.246702	0.022700
	H440	H	-0.209841	-0.241961	0.020511
	O441	O	1.467130	0.298361	-0.283454
	H442	H	1.469677	0.310673	-0.278531
	H443	H	1.486503	0.289609	-0.288433
	O444	O	-0.135036	1.113928	1.219519
	H445	H	-0.132763	1.114718	1.212781
	H446	H	-0.114788	1.112444	1.200535
	O447	O	1.203237	0.776997	-0.002448
	H448	H	1.221346	0.807372	0.018541
	H449	H	1.237080	0.754893	-0.009755
	O450	O	1.092052	0.091902	-0.178528
	H451	H	1.077242	0.078464	-0.168466
	H452	H	1.091048	0.092425	-0.172464
	O453	O	0.436525	0.373314	0.336426
	H454	H	0.439852	0.363159	0.344203
	H455	H	0.448002	0.381797	0.334209
