data_Molecule from HDF5

_cell_length_a		16.298258
_cell_length_b		16.408054
_cell_length_c		16.527408
_cell_angle_alpha	89.918266
_cell_angle_beta	90.122173
_cell_angle_gamma	90.022394
_symmetry_space_group_name_H-M	'P 1'
_symmetry_Int_Tables_number		1

loop_
	_symmetry_equiv_pos_as_xyz
	x,y,z

loop_
	_atom_site_label
	_atom_site_type_symbol
	_atom_site_fract_x
	_atom_site_fract_y
	_atom_site_fract_z
	H0	H	0.387757	0.849285	0.731647
	H1	H	0.606202	0.162953	0.728723
	H2	H	0.608952	0.848839	0.281170
	H3	H	0.392957	0.164081	0.283457
	H4	H	0.719956	0.402431	0.847905
	H5	H	0.724711	0.612821	0.161874
	H6	H	0.276603	0.613794	0.847518
	H7	H	0.277327	0.402629	0.163027
	H8	H	0.839876	0.732240	0.398931
	H9	H	0.157434	0.732007	0.613779
	H10	H	0.840081	0.286901	0.610963
	H11	H	0.157689	0.289808	0.403907
	H12	H	0.841508	0.400672	0.728206
	H13	H	0.158439	0.615174	0.727889
	H14	H	0.841661	0.620455	0.279546
	H15	H	0.157146	0.405344	0.286589
	H16	H	0.393188	0.730438	0.847641
	H17	H	0.611046	0.731809	0.160838
	H18	H	0.602703	0.287155	0.847855
	H19	H	0.394525	0.284853	0.163403
	H20	H	0.722377	0.848220	0.399110
	H21	H	0.717694	0.165216	0.609158
	H22	H	0.277648	0.847582	0.609663
	H23	H	0.282133	0.166363	0.405143
	H24	H	0.889371	0.352279	0.231656
	H25	H	0.105889	0.666824	0.227153
	H26	H	0.103723	0.349477	0.785817
	H27	H	0.890203	0.665094	0.780757
	H28	H	0.217782	0.903568	0.347508
	H29	H	0.216747	0.108572	0.664862
	H30	H	0.776456	0.111536	0.346771
	H31	H	0.775759	0.901371	0.663740
	H32	H	0.339322	0.226194	0.903187
	H33	H	0.661320	0.224274	0.109381
	H34	H	0.340794	0.785259	0.108456
	H35	H	0.660089	0.785573	0.898870
	H36	H	0.340650	0.900474	0.224782
	H37	H	0.659515	0.110872	0.227206
	H38	H	0.339677	0.111785	0.785691
	H39	H	0.657542	0.899194	0.781113
	H40	H	0.893409	0.228233	0.346649
	H41	H	0.100210	0.225773	0.664544
	H42	H	0.104945	0.784040	0.350034
	H43	H	0.890138	0.783411	0.662956
	H44	H	0.214466	0.347200	0.906330
	H45	H	0.218978	0.667482	0.108323
	H46	H	0.782400	0.347121	0.108686
	H47	H	0.778635	0.665474	0.900697
	H48	H	0.404891	0.121525	0.596140
	H49	H	0.584723	0.892141	0.598502
	H50	H	0.587532	0.120330	0.414111
	H51	H	0.407602	0.892328	0.416149
	H52	H	0.593161	0.410888	0.122287
	H53	H	0.589483	0.598398	0.891861
	H54	H	0.409549	0.597857	0.117562
	H55	H	0.406311	0.415659	0.891657
	H56	H	0.114729	0.608387	0.422149
	H57	H	0.884103	0.590286	0.602093
	H58	H	0.114106	0.418384	0.596479
	H59	H	0.882304	0.420950	0.412965
	H60	H	0.114584	0.417047	0.595708
	H61	H	0.884756	0.602949	0.589164
	H62	H	0.104823	0.586551	0.426670
	H63	H	0.882701	0.415945	0.418747
	H64	H	0.410712	0.593708	0.116945
	H65	H	0.590008	0.590280	0.894050
	H66	H	0.594713	0.420051	0.119359
	H67	H	0.410139	0.419463	0.894171
	H68	H	0.584002	0.118189	0.414749
	H69	H	0.577923	0.896979	0.591303
	H70	H	0.410953	0.121303	0.601821
	H71	H	0.407566	0.890607	0.412488
	H72	H	0.915266	0.618153	0.089618
	H73	H	0.093109	0.394016	0.093833
	H74	H	0.088491	0.620159	0.923924
	H75	H	0.917091	0.397366	0.918566
	H76	H	0.078405	0.908529	0.618829
	H77	H	0.092952	0.103559	0.388534
	H78	H	0.902133	0.095407	0.618967
	H79	H	0.915883	0.918112	0.396133
	H80	H	0.617789	0.101466	0.910927
	H81	H	0.385289	0.098922	0.093064
	H82	H	0.613261	0.923627	0.095853
	H83	H	0.387384	0.918382	0.919659
	H84	H	0.615678	0.916753	0.095106
	H85	H	0.386687	0.092448	0.092054
	H86	H	0.611936	0.096448	0.922672
	H87	H	0.388329	0.921070	0.919049
	H88	H	0.913019	0.094137	0.615292
	H89	H	0.091990	0.094666	0.392632
	H90	H	0.099885	0.918050	0.623793
	H91	H	0.908039	0.918859	0.393399
	H92	H	0.095452	0.627227	0.909847
	H93	H	0.087070	0.392105	0.103772
	H94	H	0.908952	0.622343	0.091602
	H95	H	0.906487	0.393234	0.917219
	H96	H	0.411974	0.118006	0.594536
	H97	H	0.588064	0.893557	0.588336
	H98	H	0.586183	0.117586	0.417676
	H99	H	0.410523	0.891839	0.414058
	H100	H	0.585842	0.415760	0.117518
	H101	H	0.582745	0.594565	0.895355
	H102	H	0.413963	0.596983	0.116270
	H103	H	0.412069	0.414726	0.892721
	H104	H	0.114524	0.591393	0.404947
	H105	H	0.891864	0.586604	0.585856
	H106	H	0.114063	0.418250	0.595227
	H107	H	0.884890	0.423052	0.419255
	H108	H	0.914575	0.621244	0.096886
	H109	H	0.081868	0.397124	0.094657
	H110	H	0.078894	0.621670	0.909400
	H111	H	0.914225	0.392793	0.908320
	H112	H	0.082922	0.931104	0.613147
	H113	H	0.084490	0.100444	0.392612
	H114	H	0.909732	0.103942	0.619756
	H115	H	0.911649	0.925680	0.397171
	H116	H	0.613149	0.088070	0.911883
	H117	H	0.385245	0.094397	0.098151
	H118	H	0.612421	0.919982	0.089296
	H119	H	0.386531	0.919416	0.917497
	C120	C	0.376477	0.015341	0.628852
	C121	C	0.618016	0.997897	0.626096
	C122	C	0.619940	0.014198	0.383566
	C123	C	0.377382	0.997392	0.383526
	C124	C	0.622146	0.384547	0.014850
	C125	C	0.622152	0.628082	0.996640
	C126	C	0.378432	0.628705	0.012899
	C127	C	0.377812	0.385186	0.997395
	C128	C	0.006923	0.629956	0.384501
	C129	C	0.991157	0.627969	0.626405
	C130	C	0.008671	0.385985	0.627499
	C131	C	0.989037	0.388166	0.385354
	C132	C	0.879212	0.516486	0.126294
	C133	C	0.120292	0.499395	0.128281
	C134	C	0.119683	0.517004	0.883999
	C135	C	0.878293	0.498643	0.882201
	C136	C	0.119843	0.886452	0.514688
	C137	C	0.120244	0.129388	0.496588
	C138	C	0.875933	0.129681	0.513512
	C139	C	0.877470	0.886701	0.498543
	C140	C	0.508414	0.127720	0.884309
	C141	C	0.491667	0.127016	0.126636
	C142	C	0.508853	0.885887	0.125767
	C143	C	0.491752	0.885953	0.884471
	C144	C	0.371484	0.896510	0.690062
	C145	C	0.622462	0.116068	0.687295
	C146	C	0.624923	0.895991	0.322110
	C147	C	0.375067	0.116812	0.323941
	C148	C	0.680535	0.383724	0.895290
	C149	C	0.684433	0.631197	0.114504
	C150	C	0.317004	0.631832	0.894729
	C151	C	0.317696	0.383930	0.115861
	C152	C	0.887871	0.692169	0.380959
	C153	C	0.110128	0.690885	0.630772
	C154	C	0.888296	0.326397	0.629367
	C155	C	0.109631	0.328974	0.384235
	C156	C	0.889017	0.383202	0.687719
	C157	C	0.110545	0.632769	0.687695
	C158	C	0.888629	0.636373	0.321432
	C159	C	0.109325	0.386595	0.326238
	C160	C	0.375383	0.689746	0.894565
	C161	C	0.627809	0.690546	0.114039
	C162	C	0.622508	0.326065	0.895439
	C163	C	0.375908	0.325412	0.116187
	C164	C	0.681628	0.895624	0.380973
	C165	C	0.678651	0.117078	0.628228
	C166	C	0.316494	0.895471	0.629553
	C167	C	0.319980	0.118033	0.384301
	C168	C	0.873491	0.398772	0.189714
	C169	C	0.123723	0.619132	0.187375
	C170	C	0.121515	0.396914	0.825850
	C171	C	0.873731	0.617562	0.821591
	C172	C	0.178680	0.884800	0.395400
	C173	C	0.177699	0.128330	0.616867
	C174	C	0.816028	0.130777	0.394479
	C175	C	0.815481	0.883168	0.616224
	C176	C	0.387534	0.186764	0.884074
	C177	C	0.612579	0.185541	0.128007
	C178	C	0.388846	0.825228	0.127249
	C179	C	0.611596	0.825227	0.880605
	C180	C	0.388768	0.882238	0.185447
	C181	C	0.611697	0.128991	0.186912
	C182	C	0.387582	0.129595	0.825813
	C183	C	0.610500	0.881980	0.822148
	C184	C	0.874307	0.189046	0.394470
	C185	C	0.119737	0.186631	0.616812
	C186	C	0.122351	0.825375	0.396558
	C187	C	0.872868	0.824674	0.616148
	C188	C	0.177045	0.396100	0.885461
	C189	C	0.180168	0.619210	0.128206
	C190	C	0.820380	0.395998	0.128063
	C191	C	0.817461	0.617508	0.880960
	C192	C	0.401807	0.098539	0.604483
	C193	C	0.591228	0.915541	0.600075
	C194	C	0.593581	0.097182	0.408631
	C195	C	0.401655	0.913517	0.407355
	C196	C	0.598237	0.408453	0.098088
	C197	C	0.595036	0.601896	0.915067
	C198	C	0.404025	0.603491	0.095347
	C199	C	0.402490	0.409751	0.914527
	C200	C	0.089784	0.603086	0.410479
	C201	C	0.908365	0.601008	0.599886
	C202	C	0.092506	0.410921	0.602955
	C203	C	0.905106	0.413047	0.409787
	C204	C	0.905404	0.599056	0.100197
	C205	C	0.094512	0.416257	0.104315
	C206	C	0.094880	0.601090	0.907510
	C207	C	0.904981	0.415951	0.907574
	C208	C	0.094541	0.911818	0.596978
	C209	C	0.096510	0.106355	0.413159
	C210	C	0.901025	0.105108	0.596296
	C211	C	0.904174	0.913075	0.416887
	C212	C	0.592331	0.102752	0.908221
	C213	C	0.407762	0.102425	0.101657
	C214	C	0.592059	0.912512	0.100744
	C215	C	0.408798	0.912036	0.911167
	Zn216	Zn	0.498863	0.005711	0.756045
	Zn217	Zn	0.499075	0.006225	0.255113
	Zn218	Zn	0.750997	0.506238	0.005238
	Zn219	Zn	0.248028	0.507877	0.005687
	Zn220	Zn	-0.001752	0.756936	0.506980
	Zn221	Zn	-0.001657	0.258588	0.505522
	Zn222	Zn	0.000176	0.508111	0.754679
	Zn223	Zn	-0.001673	0.509117	0.256172
	Zn224	Zn	0.501056	0.757342	0.004688
	Zn225	Zn	0.500315	0.255913	0.005826
	Zn226	Zn	0.747322	0.006784	0.505883
	Zn227	Zn	0.249702	0.006926	0.505601
	N228	N	0.407756	0.972120	0.690031
	N229	N	0.585491	0.040859	0.686000
	N230	N	0.587211	0.970861	0.323897
	N231	N	0.410110	0.040696	0.323389
	N232	N	0.680573	0.419187	0.970710
	N233	N	0.681030	0.593003	0.040641
	N234	N	0.318768	0.594667	0.969294
	N235	N	0.318753	0.420382	0.040993
	N236	N	0.962563	0.688308	0.419512
	N237	N	0.034807	0.688040	0.593458
	N238	N	0.963639	0.328239	0.592352
	N239	N	0.033836	0.329858	0.420157
	N240	N	0.964928	0.419552	0.686791
	N241	N	0.035560	0.594547	0.685216
	N242	N	0.963726	0.598666	0.323436
	N243	N	0.033260	0.422641	0.326875
	N244	N	0.412919	0.687990	0.969021
	N245	N	0.589745	0.688706	0.039828
	N246	N	0.587229	0.326357	0.970682
	N247	N	0.412448	0.325981	0.041433
	N248	N	0.678691	0.970170	0.418456
	N249	N	0.675831	0.042579	0.590601
	N250	N	0.319377	0.970345	0.592187
	N251	N	0.321186	0.042611	0.420423
	N252	N	0.908984	0.474792	0.189067
	N253	N	0.087099	0.543640	0.187519
	N254	N	0.087008	0.473310	0.824861
	N255	N	0.910549	0.542288	0.821987
	N256	N	0.177283	0.921905	0.469897
	N257	N	0.178384	0.093679	0.541245
	N258	N	0.816734	0.094858	0.469594
	N259	N	0.818200	0.920750	0.541930
	N260	N	0.463803	0.185935	0.919385
	N261	N	0.536889	0.184566	0.091401
	N262	N	0.464808	0.827121	0.091116
	N263	N	0.536805	0.827759	0.918667
	N264	N	0.464407	0.919108	0.184662
	N265	N	0.535303	0.093398	0.186306
	N266	N	0.463650	0.093531	0.825771
	N267	N	0.534611	0.918804	0.824454
	N268	N	0.910395	0.188849	0.469646
	N269	N	0.085026	0.187737	0.540947
	N270	N	0.086494	0.826060	0.471731
	N271	N	0.910570	0.826652	0.541887
	N272	N	0.176200	0.471898	0.920758
	N273	N	0.178151	0.543856	0.092165
	N274	N	0.823713	0.470116	0.089311
	N275	N	0.820383	0.542601	0.917937
	O276	O	0.652408	0.327891	0.483890
	H277	H	0.667764	0.320449	0.475873
	H278	H	0.649291	0.320700	0.491052
	O279	O	1.162571	0.176509	0.850204
	H280	H	1.151493	0.171207	0.875444
	H281	H	1.142054	0.167450	0.861236
	O282	O	0.367938	0.533080	0.621406
	H283	H	0.354256	0.519388	0.644257
	H284	H	0.371255	0.512768	0.621193
	O285	O	0.477164	0.722409	0.292027
	H286	H	0.483540	0.721188	0.273671
	H287	H	0.480091	0.719702	0.273501
	O288	O	0.974973	0.799206	0.214182
	H289	H	0.962565	0.811315	0.212927
	H290	H	0.973031	0.776006	0.239768
	O291	O	0.502694	0.435613	0.629364
	H292	H	0.509860	0.436518	0.620341
	H293	H	0.511987	0.435135	0.632660
	O294	O	-0.012341	0.111208	0.795605
	H295	H	-0.011700	0.115126	0.799230
	H296	H	0.011044	0.107608	0.794606
	O297	O	0.534612	0.553977	0.278640
	H298	H	0.540660	0.546479	0.272391
	H299	H	0.529108	0.523716	0.279674
	O300	O	0.675382	0.531220	0.331572
	H301	H	0.708469	0.529854	0.316226
	H302	H	0.679518	0.542223	0.358295
	O303	O	0.695451	0.381594	0.403113
	H304	H	0.706181	0.388247	0.419583
	H305	H	0.707587	0.403514	0.412199
	O306	O	0.377449	0.713273	0.536042
	H307	H	0.387694	0.700477	0.523070
	H308	H	0.357173	0.716701	0.532421
	O309	O	0.739332	0.185178	0.165003
	H310	H	0.741662	0.195957	0.185376
	H311	H	0.756021	0.196423	0.173843
	O312	O	-0.079553	0.815966	0.883392
	H313	H	-0.048504	0.806537	0.877715
	H314	H	-0.080736	0.844846	0.870807
	O315	O	0.716545	0.538299	0.468049
	H316	H	0.695800	0.526877	0.479349
	H317	H	0.726083	0.561170	0.477791
	O318	O	0.992454	0.127997	-0.096889
	H319	H	0.969155	0.131028	-0.104957
	H320	H	0.983553	0.113453	-0.099895
	O321	O	0.142739	0.017140	-0.142621
	H322	H	0.159567	0.028083	-0.147036
	H323	H	0.127770	0.018365	-0.127733
	O324	O	0.359650	0.430023	0.380637
	H325	H	0.363738	0.421521	0.371569
	H326	H	0.348281	0.426671	0.376836
	O327	O	0.477290	0.294555	0.714935
	H328	H	0.439521	0.281577	0.724979
	H329	H	0.481896	0.279429	0.712287
	O330	O	0.038261	0.951701	-0.024426
	H331	H	0.042308	0.942544	-0.032548
	H332	H	0.048509	0.960373	-0.029370
	O333	O	0.545777	0.710421	0.455599
	H334	H	0.535508	0.706887	0.427420
	H335	H	0.552113	0.701104	0.451374
	O336	O	0.204684	0.156435	0.045647
	H337	H	0.216371	0.179064	0.054243
	H338	H	0.202474	0.148460	0.082501
	O339	O	0.291596	0.710383	0.528569
	H340	H	0.277362	0.696016	0.533474
	H341	H	0.289062	0.705890	0.544085
	O342	O	0.131904	1.096963	1.146510
	H343	H	0.100474	1.101395	1.159962
	H344	H	0.138267	1.111131	1.162917
	O345	O	0.799871	0.816974	0.020199
	H346	H	0.808023	0.806577	0.002402
	H347	H	0.802678	0.812588	0.002664
	O348	O	0.293829	0.534616	0.311625
	H349	H	0.289642	0.550904	0.304560
	H350	H	0.293383	0.555716	0.304383
	O351	O	0.020440	0.817802	0.953677
	H352	H	0.029779	0.827291	0.968769
	H353	H	0.028955	0.807535	0.948541
	O354	O	0.190688	0.985246	0.025414
	H355	H	0.196318	1.005932	0.049321
	H356	H	0.189171	0.978832	0.033002
	O357	O	0.085081	-0.154817	0.906210
	H358	H	0.099703	-0.151932	0.908263
	H359	H	0.092309	-0.158932	0.904483
	O360	O	0.589576	0.563195	0.503207
	H361	H	0.575645	0.542865	0.519850
	H362	H	0.584272	0.573410	0.484619
	O363	O	0.187802	-0.121704	0.865604
	H364	H	0.195177	-0.112258	0.884480
	H365	H	0.201316	-0.116224	0.859385
	O366	O	0.412237	0.384511	0.321594
	H367	H	0.404138	0.389200	0.324586
	H368	H	0.427982	0.372752	0.329510
	O369	O	0.421811	0.368942	0.509713
	H370	H	0.422581	0.369691	0.518163
	H371	H	0.405200	0.368794	0.523605
	O372	O	0.864871	0.036344	0.835603
	H373	H	0.852781	0.044416	0.826424
	H374	H	0.873493	0.028557	0.846293
	O375	O	0.398000	0.335834	0.388403
	H376	H	0.417726	0.329793	0.388271
	H377	H	0.404777	0.347151	0.391486
	O378	O	0.675908	0.681653	0.684647
	H379	H	0.676693	0.675044	0.670817
	H380	H	0.641459	0.686946	0.691213
	O381	O	0.651230	0.338500	0.616975
	H382	H	0.643259	0.357198	0.615037
	H383	H	0.646032	0.338833	0.607698
	O384	O	0.573665	0.301620	0.301259
	H385	H	0.591687	0.281036	0.285060
	H386	H	0.597319	0.323112	0.309984
	O387	O	0.146962	-0.119241	1.144347
	H388	H	0.158788	-0.111460	1.160486
	H389	H	0.151037	-0.114854	1.148462
	O390	O	0.051817	0.211895	0.189471
	H391	H	0.035543	0.221540	0.189522
	H392	H	0.045809	0.210522	0.197551
	O393	O	0.889327	0.998673	0.891328
	H394	H	0.902236	1.005359	0.900792
	H395	H	0.885082	0.997448	0.894680
	O396	O	0.935692	0.046928	0.199248
	H397	H	0.925424	0.026439	0.189255
	H398	H	0.932769	0.034363	0.197041
	O399	O	0.809194	0.199851	0.806650
	H400	H	0.788131	0.202727	0.796007
	H401	H	0.832135	0.190628	0.797428
	O402	O	1.022746	1.006550	0.972329
	H403	H	1.023852	1.017129	0.963716
	H404	H	1.033610	1.000153	0.973960
	O405	O	1.049452	0.873554	0.079998
	H406	H	1.036964	0.871019	0.084990
	H407	H	1.066266	0.865617	0.088850
	O408	O	0.808806	-0.138024	0.127322
	H409	H	0.819890	-0.125755	0.115247
	H410	H	0.794521	-0.143163	0.104850
	O411	O	0.792464	1.016025	0.175211
	H412	H	0.785146	1.012513	0.175004
	H413	H	0.775214	1.003923	0.181699
	O414	O	0.562714	0.470235	0.635460
	H415	H	0.554520	0.478364	0.643949
	H416	H	0.540536	0.466502	0.621523
	O417	O	0.428862	0.559448	0.712314
	H418	H	0.443274	0.557376	0.703106
	H419	H	0.439615	0.562153	0.711606
	O420	O	0.204796	0.039572	0.205735
	H421	H	0.213004	0.045859	0.225415
	H422	H	0.193106	0.067336	0.209423
	O423	O	0.713896	0.523052	0.710627
	H424	H	0.707861	0.543364	0.705676
	H425	H	0.736890	0.528268	0.731890
	O426	O	0.524973	0.674410	0.653618
	H427	H	0.514950	0.681282	0.625848
	H428	H	0.524667	0.688841	0.667099
	O429	O	0.300900	0.706542	0.310187
	H430	H	0.297028	0.712844	0.360027
	H431	H	0.331781	0.715936	0.295716
	O432	O	0.447609	0.508623	0.484080
	H433	H	0.446143	0.501592	0.493500
	H434	H	0.435366	0.521409	0.466574
	O435	O	0.282757	0.321718	0.529629
	H436	H	0.268793	0.301159	0.525058
	H437	H	0.287509	0.331680	0.547794
	O438	O	-0.116964	0.220103	0.059131
	H439	H	-0.140281	0.225837	0.063382
	H440	H	-0.127266	0.220278	0.044563
	O441	O	0.905831	0.205134	-0.018933
	H442	H	0.910861	0.212940	-0.044344
	H443	H	0.891067	0.216787	-0.030568
	O444	O	-0.040942	1.126362	1.060418
	H445	H	-0.018303	1.115714	1.060267
	H446	H	-0.058550	1.136614	1.054357
	O447	O	0.285961	0.475419	0.719566
	H448	H	0.264983	0.468087	0.742291
	H449	H	0.306988	0.487689	0.730782
	O450	O	0.717848	0.720338	0.528356
	H451	H	0.705778	0.741449	0.519536
	H452	H	0.726046	0.741172	0.555324
	O453	O	0.303876	0.308223	0.701381
	H454	H	0.306033	0.332136	0.698225
	H455	H	0.280400	0.291225	0.713833
