data_Molecule from HDF5

_cell_length_a		16.151352
_cell_length_b		16.092218
_cell_length_c		16.404094
_cell_angle_alpha	90.197227
_cell_angle_beta	90.101362
_cell_angle_gamma	89.984621
_symmetry_space_group_name_H-M	'P 1'
_symmetry_Int_Tables_number		1

loop_
	_symmetry_equiv_pos_as_xyz
	x,y,z

loop_
	_atom_site_label
	_atom_site_type_symbol
	_atom_site_fract_x
	_atom_site_fract_y
	_atom_site_fract_z
	H0	H	0.403283	0.842194	0.716838
	H1	H	0.607637	0.170189	0.718749
	H2	H	0.605816	0.841099	0.285285
	H3	H	0.404036	0.171130	0.288189
	H4	H	0.717453	0.407524	0.839435
	H5	H	0.719340	0.606419	0.164982
	H6	H	0.287966	0.605420	0.839283
	H7	H	0.288277	0.408001	0.164521
	H8	H	0.837674	0.716526	0.407469
	H9	H	0.169739	0.716123	0.597958
	H10	H	0.837799	0.295464	0.596755
	H11	H	0.169274	0.294621	0.406435
	H12	H	0.839237	0.405909	0.716763
	H13	H	0.167343	0.607309	0.718973
	H14	H	0.839560	0.606251	0.286897
	H15	H	0.166918	0.402895	0.286604
	H16	H	0.407237	0.719059	0.838674
	H17	H	0.601487	0.721848	0.165094
	H18	H	0.599892	0.293065	0.838732
	H19	H	0.405206	0.292437	0.164817
	H20	H	0.715438	0.839211	0.405842
	H21	H	0.714942	0.172283	0.597052
	H22	H	0.294218	0.839854	0.595865
	H23	H	0.293200	0.172190	0.406131
	H24	H	0.902005	0.341032	0.216643
	H25	H	0.103775	0.670189	0.218823
	H26	H	0.102946	0.342396	0.787026
	H27	H	0.902828	0.671167	0.788738
	H28	H	0.217553	0.906837	0.338820
	H29	H	0.219397	0.104896	0.664796
	H30	H	0.788870	0.104511	0.339410
	H31	H	0.789674	0.908114	0.665427
	H32	H	0.337347	0.216264	0.907622
	H33	H	0.669686	0.218715	0.098528
	H34	H	0.337502	0.796756	0.096153
	H35	H	0.668863	0.793565	0.905217
	H36	H	0.339925	0.905254	0.216331
	H37	H	0.667626	0.108844	0.219555
	H38	H	0.341106	0.109632	0.784732
	H39	H	0.668072	0.905100	0.786277
	H40	H	0.906637	0.219369	0.339232
	H41	H	0.101663	0.220051	0.665502
	H42	H	0.100997	0.790629	0.339820
	H43	H	0.908118	0.793514	0.665994
	H44	H	0.213993	0.340270	0.906130
	H45	H	0.214182	0.672308	0.098793
	H46	H	0.792499	0.339394	0.097036
	H47	H	0.792558	0.672792	0.908657
	H48	H	0.407942	0.128605	0.603079
	H49	H	0.589932	0.886727	0.605938
	H50	H	0.583955	0.117783	0.415664
	H51	H	0.408495	0.888157	0.414387
	H52	H	0.592550	0.408305	0.118161
	H53	H	0.607203	0.608910	0.881202
	H54	H	0.414272	0.598195	0.116307
	H55	H	0.414255	0.403246	0.884380
	H56	H	0.118108	0.598967	0.423748
	H57	H	0.883971	0.601435	0.599687
	H58	H	0.123176	0.412767	0.599811
	H59	H	0.886329	0.408936	0.416594
	H60	H	0.121528	0.412646	0.594584
	H61	H	0.885935	0.600110	0.594452
	H62	H	0.119101	0.583245	0.401648
	H63	H	0.888569	0.423031	0.408307
	H64	H	0.409449	0.607743	0.120099
	H65	H	0.602254	0.586111	0.889293
	H66	H	0.603877	0.410401	0.120985
	H67	H	0.397414	0.411224	0.882772
	H68	H	0.608004	0.124979	0.416085
	H69	H	0.590427	0.892079	0.585302
	H70	H	0.422718	0.122072	0.596705
	H71	H	0.407643	0.883587	0.400952
	H72	H	0.913911	0.623665	0.097210
	H73	H	0.099524	0.384647	0.098037
	H74	H	0.096522	0.626613	0.907474
	H75	H	0.905823	0.384732	0.904175
	H76	H	0.099788	0.907721	0.619697
	H77	H	0.096965	0.102674	0.385520
	H78	H	0.914877	0.099653	0.616820
	H79	H	0.911675	0.898152	0.382746
	H80	H	0.622087	0.099614	0.911340
	H81	H	0.387431	0.096106	0.094140
	H82	H	0.619478	0.917676	0.089376
	H83	H	0.385569	0.919069	0.904501
	H84	H	0.621773	0.919835	0.099788
	H85	H	0.385350	0.097533	0.100239
	H86	H	0.621771	0.095478	0.908094
	H87	H	0.384169	0.910698	0.904328
	H88	H	0.907501	0.105117	0.620844
	H89	H	0.101363	0.099286	0.385707
	H90	H	0.104250	0.915201	0.618910
	H91	H	0.897213	0.917784	0.384959
	H92	H	0.091598	0.623788	0.908501
	H93	H	0.091089	0.388520	0.097800
	H94	H	0.912496	0.623580	0.096224
	H95	H	0.916296	0.388787	0.904628
	H96	H	0.408155	0.124319	0.586693
	H97	H	0.608706	0.883413	0.595204
	H98	H	0.594592	0.127659	0.395716
	H99	H	0.419958	0.889403	0.405571
	H100	H	0.597001	0.419503	0.116173
	H101	H	0.584012	0.603455	0.889281
	H102	H	0.402869	0.598802	0.118458
	H103	H	0.413046	0.420898	0.889732
	H104	H	0.127974	0.608709	0.400789
	H105	H	0.885539	0.596107	0.598912
	H106	H	0.120984	0.416560	0.597832
	H107	H	0.881059	0.409620	0.400354
	H108	H	0.912151	0.624163	0.097956
	H109	H	0.095556	0.389351	0.090705
	H110	H	0.096093	0.625304	0.912289
	H111	H	0.910155	0.388827	0.913124
	H112	H	0.094924	0.914658	0.617103
	H113	H	0.096053	0.097451	0.387369
	H114	H	0.906562	0.095882	0.617196
	H115	H	0.920692	0.918889	0.391446
	H116	H	0.623457	0.100410	0.906587
	H117	H	0.384775	0.102156	0.095353
	H118	H	0.623653	0.908759	0.095719
	H119	H	0.387251	0.914277	0.910812
	C120	C	0.383941	0.015456	0.622942
	C121	C	0.625535	0.997106	0.623544
	C122	C	0.625099	0.014175	0.380209
	C123	C	0.383211	0.996856	0.379633
	C124	C	0.625847	0.384164	0.010636
	C125	C	0.625965	0.628866	0.994029
	C126	C	0.380886	0.629412	0.010532
	C127	C	0.380574	0.384180	0.993431
	C128	C	0.012470	0.626319	0.380628
	C129	C	0.994676	0.627533	0.624916
	C130	C	0.012734	0.385621	0.624148
	C131	C	0.994478	0.384811	0.380848
	C132	C	0.883147	0.514524	0.124152
	C133	C	0.124368	0.496971	0.124204
	C134	C	0.123547	0.515692	0.881141
	C135	C	0.882036	0.497226	0.880426
	C136	C	0.126963	0.883583	0.510726
	C137	C	0.126541	0.128268	0.493899
	C138	C	0.881594	0.128416	0.510664
	C139	C	0.882034	0.884142	0.494060
	C140	C	0.513100	0.127486	0.880529
	C141	C	0.495161	0.128004	0.124373
	C142	C	0.512432	0.886441	0.122709
	C143	C	0.494850	0.885371	0.879004
	C144	C	0.385063	0.890962	0.677681
	C145	C	0.625500	0.121328	0.679535
	C146	C	0.624222	0.890058	0.324568
	C147	C	0.384356	0.121682	0.325402
	C148	C	0.679920	0.387002	0.888106
	C149	C	0.681161	0.626699	0.116517
	C150	C	0.325872	0.626087	0.888115
	C151	C	0.326151	0.387392	0.115949
	C152	C	0.887635	0.680186	0.385400
	C153	C	0.119912	0.680279	0.619974
	C154	C	0.887723	0.331589	0.619006
	C155	C	0.119439	0.330810	0.384901
	C156	C	0.888328	0.386711	0.678555
	C157	C	0.118722	0.626415	0.680200
	C158	C	0.888723	0.625373	0.325438
	C159	C	0.118270	0.384741	0.325332
	C160	C	0.385131	0.682669	0.887592
	C161	C	0.622886	0.684530	0.116461
	C162	C	0.621750	0.329756	0.887806
	C163	C	0.384311	0.330000	0.116180
	C164	C	0.679096	0.889150	0.383943
	C165	C	0.678955	0.122496	0.619297
	C166	C	0.330303	0.889808	0.618128
	C167	C	0.329677	0.122377	0.384566
	C168	C	0.883324	0.390110	0.178426
	C169	C	0.123220	0.621009	0.180255
	C170	C	0.122560	0.391257	0.825772
	C171	C	0.883465	0.621954	0.826512
	C172	C	0.180594	0.886298	0.387806
	C173	C	0.181733	0.125703	0.616198
	C174	C	0.826919	0.124989	0.387983
	C175	C	0.827618	0.887482	0.616822
	C176	C	0.387665	0.180883	0.885079
	C177	C	0.619941	0.182216	0.120120
	C178	C	0.387442	0.832807	0.118079
	C179	C	0.619508	0.830571	0.883473
	C180	C	0.388597	0.887055	0.177734
	C181	C	0.619011	0.127195	0.179979
	C182	C	0.389529	0.127287	0.824314
	C183	C	0.619116	0.886124	0.824594
	C184	C	0.885244	0.182122	0.387886
	C185	C	0.122774	0.182734	0.616570
	C186	C	0.122689	0.828518	0.388119
	C187	C	0.886521	0.830557	0.617150
	C188	C	0.177948	0.390524	0.884551
	C189	C	0.177826	0.622318	0.120539
	C190	C	0.828528	0.389584	0.119254
	C191	C	0.828617	0.622817	0.885867
	C192	C	0.406303	0.102583	0.601785
	C193	C	0.603062	0.910048	0.601864
	C194	C	0.602465	0.100966	0.402565
	C195	C	0.405427	0.909628	0.400762
	C196	C	0.604251	0.406348	0.096208
	C197	C	0.604210	0.606318	0.908600
	C198	C	0.402589	0.607970	0.096156
	C199	C	0.402072	0.405363	0.907760
	C200	C	0.099349	0.603584	0.402250
	C201	C	0.907585	0.605830	0.603987
	C202	C	0.099576	0.407722	0.603571
	C203	C	0.907639	0.407339	0.402234
	C204	C	0.906020	0.601503	0.103300
	C205	C	0.101811	0.409882	0.102178
	C206	C	0.101176	0.602802	0.902866
	C207	C	0.904349	0.410056	0.901117
	C208	C	0.105883	0.905833	0.596363
	C209	C	0.104626	0.106278	0.408044
	C210	C	0.903189	0.106504	0.596070
	C211	C	0.903547	0.905320	0.408605
	C212	C	0.599877	0.105045	0.902200
	C213	C	0.408291	0.105423	0.102999
	C214	C	0.599237	0.908765	0.101268
	C215	C	0.408122	0.907933	0.900094
	Zn216	Zn	0.504788	0.006782	0.751309
	Zn217	Zn	0.503879	0.005812	0.252295
	Zn218	Zn	0.755291	0.506244	0.002484
	Zn219	Zn	0.251542	0.506735	0.002072
	Zn220	Zn	0.004049	0.754407	0.502858
	Zn221	Zn	0.003993	0.257333	0.501990
	Zn222	Zn	0.003458	0.506798	0.752663
	Zn223	Zn	0.003657	0.504132	0.252745
	Zn224	Zn	0.503215	0.758736	0.001929
	Zn225	Zn	0.503357	0.255155	0.001736
	Zn226	Zn	0.752345	0.006131	0.502408
	Zn227	Zn	0.256265	0.006260	0.501507
	N228	N	0.417392	0.970028	0.680866
	N229	N	0.592806	0.042377	0.682067
	N230	N	0.591408	0.968846	0.322113
	N231	N	0.417117	0.042670	0.322527
	N232	N	0.682737	0.420027	0.965579
	N233	N	0.683174	0.592836	0.039492
	N234	N	0.323180	0.593651	0.965719
	N235	N	0.323742	0.420369	0.038750
	N236	N	0.965659	0.680776	0.419396
	N237	N	0.041956	0.680935	0.586292
	N238	N	0.965899	0.330632	0.585912
	N239	N	0.041509	0.330653	0.418773
	N240	N	0.966982	0.419631	0.681828
	N241	N	0.039843	0.594247	0.683375
	N242	N	0.967427	0.592645	0.322394
	N243	N	0.039546	0.417407	0.322651
	N244	N	0.418787	0.684731	0.964608
	N245	N	0.589062	0.685847	0.039365
	N246	N	0.588641	0.328009	0.964979
	N247	N	0.417479	0.327758	0.038940
	N248	N	0.679730	0.967410	0.418056
	N249	N	0.679083	0.044315	0.585151
	N250	N	0.329439	0.968148	0.584809
	N251	N	0.328545	0.043789	0.417341
	N252	N	0.916601	0.468669	0.181709
	N253	N	0.090506	0.541906	0.182522
	N254	N	0.089541	0.469993	0.823387
	N255	N	0.916042	0.542975	0.823022
	N256	N	0.183188	0.920156	0.465061
	N257	N	0.184126	0.092657	0.538806
	N258	N	0.824629	0.092182	0.465322
	N259	N	0.824648	0.919960	0.539365
	N260	N	0.465280	0.180943	0.919559
	N261	N	0.541783	0.182971	0.086419
	N262	N	0.465549	0.832363	0.084576
	N263	N	0.541348	0.830122	0.916923
	N264	N	0.467225	0.919791	0.180476
	N265	N	0.540346	0.094449	0.182855
	N266	N	0.468548	0.094884	0.821335
	N267	N	0.540798	0.919467	0.821848
	N268	N	0.918738	0.184330	0.465008
	N269	N	0.089121	0.184285	0.539305
	N270	N	0.090158	0.826593	0.465417
	N271	N	0.919470	0.828215	0.539829
	N272	N	0.178495	0.469011	0.918255
	N273	N	0.178497	0.544282	0.086288
	N274	N	0.828364	0.468087	0.086132
	N275	N	0.827601	0.544286	0.918753
	O276	O	0.517227	0.480860	0.550726
	H277	H	0.520228	0.474852	0.548304
	H278	H	0.515438	0.486518	0.538664
	O279	O	0.019701	0.004330	0.020057
	H280	H	0.014124	0.002710	0.024062
	H281	H	0.019373	-0.001403	0.021805
	O282	O	0.595552	0.498169	0.483156
	H283	H	0.600366	0.493049	0.483842
	H284	H	0.599174	0.496083	0.483432
	O285	O	0.575418	0.474156	0.451808
	H286	H	0.575558	0.465705	0.441831
	H287	H	0.578746	0.476913	0.456323
	O288	O	1.020778	0.021784	0.024963
	H289	H	1.025211	0.022971	0.017570
	H290	H	1.018022	0.018723	0.025882
	O291	O	-0.415738	0.477764	-0.465429
	H292	H	-0.414506	0.474563	-0.454737
	H293	H	-0.418269	0.478383	-0.466352
	O294	O	0.490114	0.471372	0.484298
	H295	H	0.494173	0.484030	0.483703
	H296	H	0.492932	0.472759	0.487458
	O297	O	-0.006274	0.989346	0.060119
	H298	H	-0.002550	0.983149	0.062429
	H299	H	-0.011949	1.000561	0.062911
	O300	O	0.963674	0.002413	1.012374
	H301	H	0.961131	0.006906	1.012361
	H302	H	0.967674	0.007670	1.011172
	O303	O	0.484175	0.502940	0.476157
	H304	H	0.485977	0.512370	0.479806
	H305	H	0.488238	0.504548	0.468076
	O306	O	-0.016263	1.018514	1.005655
	H307	H	-0.013117	1.020733	1.002401
	H308	H	-0.013963	1.016181	1.013169
	O309	O	0.555091	0.485061	0.525377
	H310	H	0.556411	0.485565	0.529735
	H311	H	0.548488	0.476386	0.527643
