data_Molecule from HDF5

_cell_length_a		16.321286
_cell_length_b		16.329094
_cell_length_c		16.458049
_cell_angle_alpha	89.887462
_cell_angle_beta	90.178144
_cell_angle_gamma	90.000920
_symmetry_space_group_name_H-M	'P 1'
_symmetry_Int_Tables_number		1

loop_
	_symmetry_equiv_pos_as_xyz
	x,y,z

loop_
	_atom_site_label
	_atom_site_type_symbol
	_atom_site_fract_x
	_atom_site_fract_y
	_atom_site_fract_z
	H0	H	0.406402	0.838538	0.733613
	H1	H	0.615273	0.159906	0.733419
	H2	H	0.613657	0.838769	0.291825
	H3	H	0.402881	0.158474	0.291431
	H4	H	0.723550	0.396779	0.851041
	H5	H	0.731942	0.601671	0.170618
	H6	H	0.288963	0.602870	0.852911
	H7	H	0.287308	0.393302	0.171400
	H8	H	0.847702	0.717613	0.404766
	H9	H	0.170024	0.714543	0.612052
	H10	H	0.845315	0.280350	0.608295
	H11	H	0.168048	0.277432	0.406768
	H12	H	0.846013	0.394013	0.727257
	H13	H	0.168279	0.601405	0.729786
	H14	H	0.847889	0.601851	0.288755
	H15	H	0.168044	0.391760	0.289889
	H16	H	0.405820	0.719539	0.854164
	H17	H	0.614546	0.717707	0.172619
	H18	H	0.612633	0.278449	0.853863
	H19	H	0.407903	0.280531	0.173482
	H20	H	0.726935	0.837300	0.409587
	H21	H	0.729164	0.159726	0.614606
	H22	H	0.291167	0.836887	0.615959
	H23	H	0.289879	0.158894	0.409732
	H24	H	0.902089	0.336791	0.230341
	H25	H	0.115027	0.655825	0.233561
	H26	H	0.107581	0.335725	0.794699
	H27	H	0.904189	0.658959	0.789601
	H28	H	0.229053	0.895310	0.351277
	H29	H	0.222461	0.096100	0.672300
	H30	H	0.786603	0.101479	0.351487
	H31	H	0.793194	0.896519	0.672319
	H32	H	0.348532	0.215093	0.914373
	H33	H	0.671241	0.215467	0.115060
	H34	H	0.348517	0.779770	0.116952
	H35	H	0.670807	0.781293	0.914638
	H36	H	0.347889	0.895831	0.230694
	H37	H	0.669452	0.101983	0.232856
	H38	H	0.349860	0.103331	0.794434
	H39	H	0.670471	0.896399	0.796113
	H40	H	0.902229	0.216691	0.349825
	H41	H	0.108155	0.215307	0.669828
	H42	H	0.111018	0.780230	0.350026
	H43	H	0.908889	0.779493	0.671138
	H44	H	0.225205	0.337366	0.910486
	H45	H	0.228099	0.657693	0.116058
	H46	H	0.792114	0.335395	0.110609
	H47	H	0.790082	0.659468	0.908969
	H48	H	0.420184	0.112433	0.603929
	H49	H	0.595184	0.886672	0.604508
	H50	H	0.590474	0.109467	0.424612
	H51	H	0.419925	0.882915	0.418733
	H52	H	0.604005	0.410433	0.126047
	H53	H	0.595888	0.586709	0.900812
	H54	H	0.417462	0.586295	0.125939
	H55	H	0.418399	0.408381	0.900126
	H56	H	0.122486	0.585208	0.419850
	H57	H	0.893712	0.587682	0.598852
	H58	H	0.122739	0.410468	0.608225
	H59	H	0.889275	0.396356	0.420323
	H60	H	0.125143	0.398751	0.603642
	H61	H	0.894148	0.586485	0.598658
	H62	H	0.121461	0.585990	0.420591
	H63	H	0.899168	0.414056	0.427344
	H64	H	0.419472	0.587932	0.125994
	H65	H	0.595425	0.593558	0.899648
	H66	H	0.597600	0.409100	0.124941
	H67	H	0.417318	0.406215	0.898914
	H68	H	0.600641	0.111436	0.428615
	H69	H	0.601987	0.885143	0.602071
	H70	H	0.415612	0.113075	0.601863
	H71	H	0.422014	0.885237	0.423273
	H72	H	0.918352	0.609428	0.095041
	H73	H	0.098295	0.387289	0.087080
	H74	H	0.092717	0.611129	0.920889
	H75	H	0.911701	0.383084	0.924877
	H76	H	0.110432	0.908410	0.626597
	H77	H	0.103102	0.090696	0.393726
	H78	H	0.921270	0.088656	0.623406
	H79	H	0.918775	0.912280	0.399779
	H80	H	0.625936	0.086135	0.921287
	H81	H	0.393383	0.087290	0.106973
	H82	H	0.617651	0.914748	0.091809
	H83	H	0.395059	0.910061	0.923268
	H84	H	0.624213	0.918639	0.116053
	H85	H	0.392900	0.094228	0.104359
	H86	H	0.626325	0.092392	0.922707
	H87	H	0.395027	0.910191	0.923370
	H88	H	0.917918	0.089448	0.624814
	H89	H	0.101263	0.083354	0.396338
	H90	H	0.093383	0.911753	0.620749
	H91	H	0.919727	0.903364	0.396503
	H92	H	0.101092	0.613804	0.921433
	H93	H	0.106169	0.377880	0.106168
	H94	H	0.918696	0.612820	0.102180
	H95	H	0.910624	0.379098	0.909411
	H96	H	0.416671	0.114614	0.606567
	H97	H	0.599459	0.883466	0.609125
	H98	H	0.598088	0.114143	0.418034
	H99	H	0.416624	0.883917	0.422739
	H100	H	0.600731	0.404487	0.127894
	H101	H	0.601448	0.589673	0.897752
	H102	H	0.416899	0.588804	0.126831
	H103	H	0.416052	0.408400	0.899178
	H104	H	0.121420	0.584564	0.420675
	H105	H	0.893810	0.586573	0.599549
	H106	H	0.119595	0.407562	0.596009
	H107	H	0.891902	0.413426	0.407893
	H108	H	0.924949	0.609549	0.099521
	H109	H	0.085099	0.385779	0.104944
	H110	H	0.097171	0.614435	0.914019
	H111	H	0.924148	0.385085	0.915348
	H112	H	0.098161	0.894512	0.626548
	H113	H	0.095544	0.089390	0.396754
	H114	H	0.918045	0.085858	0.623133
	H115	H	0.911969	0.908022	0.395280
	H116	H	0.623725	0.088560	0.926223
	H117	H	0.395366	0.088803	0.100230
	H118	H	0.628306	0.895100	0.105643
	H119	H	0.395450	0.910493	0.923164
	C120	C	0.387556	0.007016	0.634819
	C121	C	0.630709	0.991031	0.635296
	C122	C	0.628552	0.006365	0.391801
	C123	C	0.387509	0.989875	0.390316
	C124	C	0.630647	0.376795	0.020713
	C125	C	0.630394	0.620517	1.004350
	C126	C	0.386519	0.619938	0.021315
	C127	C	0.386973	0.376823	1.004915
	C128	C	0.016168	0.618190	0.388180
	C129	C	0.999977	0.618283	0.630512
	C130	C	0.015565	0.375426	0.631422
	C131	C	0.999185	0.375850	0.387756
	C132	C	0.888358	0.504777	0.130437
	C133	C	0.128785	0.488904	0.131865
	C134	C	0.127923	0.506677	0.889476
	C135	C	0.885132	0.489157	0.886821
	C136	C	0.131395	0.875070	0.519074
	C137	C	0.129576	0.118441	0.501610
	C138	C	0.886397	0.119203	0.518501
	C139	C	0.887004	0.876488	0.502947
	C140	C	0.518957	0.120548	0.892663
	C141	C	0.500466	0.120431	0.134765
	C142	C	0.517435	0.877920	0.134958
	C143	C	0.501009	0.878224	0.892782
	C144	C	0.387401	0.886426	0.693761
	C145	C	0.633167	0.111652	0.693698
	C146	C	0.631114	0.886268	0.331983
	C147	C	0.385104	0.110457	0.331409
	C148	C	0.686563	0.376783	0.899798
	C149	C	0.691430	0.620724	0.123421
	C150	C	0.328338	0.621650	0.900994
	C151	C	0.327877	0.375382	0.124322
	C152	C	0.896053	0.678276	0.386193
	C153	C	0.121329	0.676000	0.631121
	C154	C	0.893891	0.318594	0.629113
	C155	C	0.120039	0.316770	0.387435
	C156	C	0.894233	0.375192	0.688246
	C157	C	0.120604	0.619425	0.689809
	C158	C	0.895990	0.620637	0.328366
	C159	C	0.119932	0.373478	0.329215
	C160	C	0.386374	0.679783	0.901710
	C161	C	0.632536	0.677978	0.124724
	C162	C	0.630966	0.317902	0.901250
	C163	C	0.387744	0.319127	0.125289
	C164	C	0.687591	0.885601	0.390659
	C165	C	0.689990	0.111492	0.634665
	C166	C	0.330153	0.885587	0.634970
	C167	C	0.328724	0.110772	0.390168
	C168	C	0.884875	0.384912	0.190360
	C169	C	0.132007	0.608511	0.192857
	C170	C	0.127543	0.384689	0.833031
	C171	C	0.885019	0.610638	0.829021
	C172	C	0.189532	0.875775	0.398919
	C173	C	0.185092	0.117133	0.623488
	C174	C	0.826463	0.120200	0.398910
	C175	C	0.831313	0.876687	0.623863
	C176	C	0.396865	0.176998	0.893721
	C177	C	0.622398	0.177358	0.134903
	C178	C	0.396687	0.818796	0.135926
	C179	C	0.622415	0.820247	0.894326
	C180	C	0.396376	0.876757	0.192329
	C181	C	0.621332	0.120866	0.193579
	C182	C	0.397569	0.121500	0.834388
	C183	C	0.622174	0.877073	0.835095
	C184	C	0.884371	0.177414	0.398134
	C185	C	0.128209	0.176116	0.622275
	C186	C	0.130788	0.818410	0.398077
	C187	C	0.888716	0.818317	0.623193
	C188	C	0.185690	0.385249	0.890824
	C189	C	0.188128	0.609696	0.134025
	C190	C	0.829838	0.384055	0.130390
	C191	C	0.828534	0.611160	0.888441
	C192	C	0.410869	0.091472	0.610994
	C193	C	0.606076	0.906978	0.611907
	C194	C	0.603449	0.089861	0.416539
	C195	C	0.412366	0.905943	0.414575
	C196	C	0.607561	0.401211	0.104724
	C197	C	0.604877	0.597008	0.921025
	C198	C	0.410833	0.594831	0.104505
	C199	C	0.410600	0.400696	0.921040
	C200	C	0.099867	0.592793	0.413167
	C201	C	0.915713	0.594049	0.605992
	C202	C	0.100579	0.398973	0.609157
	C203	C	0.915435	0.400752	0.411652
	C204	C	0.913522	0.588856	0.106068
	C205	C	0.103812	0.405450	0.106730
	C206	C	0.104102	0.591010	0.912270
	C207	C	0.908553	0.404388	0.909940
	C208	C	0.107695	0.898209	0.602828
	C209	C	0.106665	0.094878	0.417589
	C210	C	0.911632	0.095005	0.602184
	C211	C	0.910042	0.900877	0.418968
	C212	C	0.603402	0.096280	0.916444
	C213	C	0.415902	0.096912	0.110842
	C214	C	0.601500	0.902365	0.111179
	C215	C	0.416993	0.903062	0.916476
	Zn216	Zn	0.509235	-0.000222	0.764098
	Zn217	Zn	0.508279	-0.001359	0.262241
	Zn218	Zn	0.758593	0.497675	0.010745
	Zn219	Zn	0.257303	0.498077	0.011921
	Zn220	Zn	0.008675	0.747085	0.509783
	Zn221	Zn	0.007338	0.247279	0.508646
	Zn222	Zn	0.007394	0.497462	0.759318
	Zn223	Zn	0.008052	0.496521	0.259757
	Zn224	Zn	0.508655	0.749652	0.014620
	Zn225	Zn	0.509824	0.248331	0.013622
	Zn226	Zn	0.758261	-0.001791	0.511863
	Zn227	Zn	0.259656	-0.002074	0.511918
	N228	N	0.422386	0.962904	0.693658
	N229	N	0.597147	0.035647	0.694372
	N230	N	0.595109	0.962350	0.332527
	N231	N	0.420982	0.034311	0.331557
	N232	N	0.686473	0.412716	0.975163
	N233	N	0.690493	0.586063	0.047365
	N234	N	0.328116	0.585649	0.976470
	N235	N	0.327283	0.410541	0.048361
	N236	N	0.971959	0.676817	0.422673
	N237	N	0.045377	0.675176	0.594819
	N238	N	0.970432	0.318552	0.594429
	N239	N	0.044204	0.317974	0.423044
	N240	N	0.971084	0.409665	0.689832
	N241	N	0.044122	0.584190	0.689560
	N242	N	0.971665	0.583995	0.329311
	N243	N	0.043788	0.409521	0.329314
	N244	N	0.421811	0.679069	0.977658
	N245	N	0.595581	0.678204	0.049744
	N246	N	0.596985	0.317775	0.977552
	N247	N	0.424006	0.320104	0.050017
	N248	N	0.686104	0.961118	0.427302
	N249	N	0.688750	0.035499	0.599076
	N250	N	0.330068	0.961575	0.598819
	N251	N	0.330022	0.034883	0.426136
	N252	N	0.920443	0.461149	0.190362
	N253	N	0.095576	0.532737	0.191347
	N254	N	0.092491	0.461210	0.831893
	N255	N	0.919284	0.533719	0.827856
	N256	N	0.190129	0.909968	0.475266
	N257	N	0.186272	0.082332	0.547560
	N258	N	0.827823	0.084702	0.474689
	N259	N	0.829875	0.911671	0.547914
	N260	N	0.473365	0.176832	0.928841
	N261	N	0.546221	0.177282	0.099084
	N262	N	0.472930	0.819259	0.101148
	N263	N	0.546043	0.820735	0.929409
	N264	N	0.472526	0.912674	0.192045
	N265	N	0.544375	0.086646	0.193859
	N266	N	0.474567	0.087426	0.833314
	N267	N	0.545776	0.912537	0.834243
	N268	N	0.920840	0.177115	0.473677
	N269	N	0.094784	0.177517	0.545436
	N270	N	0.095681	0.817556	0.473733
	N271	N	0.922136	0.817673	0.546678
	N272	N	0.186419	0.462071	0.924907
	N273	N	0.186381	0.534349	0.096866
	N274	N	0.831783	0.459835	0.093727
	N275	N	0.828293	0.534693	0.923422
	O276	O	0.364476	0.646215	0.441500
	H277	H	0.345568	0.664303	0.440610
	H278	H	0.380988	0.638128	0.405827
	O279	O	0.316197	0.679325	0.314833
	H280	H	0.324647	0.689822	0.318529
	H281	H	0.329938	0.644490	0.307656
	O282	O	0.313413	0.321436	0.533777
	H283	H	0.305861	0.345477	0.518070
	H284	H	0.288519	0.308307	0.544188
	O285	O	1.208059	0.923016	-0.121921
	H286	H	1.215751	0.921740	-0.143170
	H287	H	1.208605	0.923072	-0.125903
	O288	O	0.699373	0.310462	0.453699
	H289	H	0.687877	0.310607	0.441956
	H290	H	0.718100	0.298269	0.441161
	O291	O	0.555022	0.692251	0.517524
	H292	H	0.549711	0.695147	0.489326
	H293	H	0.569021	0.714269	0.509581
	O294	O	0.941576	1.076184	0.994264
	H295	H	0.932915	1.077760	1.010896
	H296	H	0.962966	1.069018	0.995248
	O297	O	0.664892	0.395479	0.320419
	H298	H	0.674934	0.387607	0.319984
	H299	H	0.665901	0.392974	0.327961
	O300	O	0.323661	0.360743	0.711389
	H301	H	0.355101	0.350870	0.715049
	H302	H	0.311348	0.351831	0.680375
	O303	O	0.209101	0.204840	0.801818
	H304	H	0.216277	0.216416	0.783719
	H305	H	0.187954	0.205604	0.824282
	O306	O	0.502869	0.494900	0.679023
	H307	H	0.484218	0.486853	0.688795
	H308	H	0.508731	0.479382	0.683358
	O309	O	1.104046	-0.064712	0.186948
	H310	H	1.116063	-0.068792	0.172547
	H311	H	1.117814	-0.069293	0.195379
	O312	O	0.550318	0.663257	0.314463
	H313	H	0.570716	0.668018	0.304167
	H314	H	0.546873	0.653686	0.306827
	O315	O	0.696970	0.702062	0.736337
	H316	H	0.662917	0.711499	0.743711
	H317	H	0.693319	0.712318	0.735949
	O318	O	-0.028356	-0.066610	0.129806
	H319	H	-0.032025	-0.070147	0.117627
	H320	H	-0.017757	-0.070914	0.131965
	O321	O	0.668760	0.550252	0.581923
	H322	H	0.661816	0.538070	0.578681
	H323	H	0.664140	0.546459	0.602287
	O324	O	1.200138	-0.094255	1.057460
	H325	H	1.192714	-0.092541	1.045010
	H326	H	1.206595	-0.101945	1.046969
	O327	O	0.510900	0.299966	0.442657
	H328	H	0.499512	0.296194	0.445365
	H329	H	0.506261	0.308620	0.447066
	O330	O	-0.077936	0.972608	0.855206
	H331	H	-0.092248	0.964089	0.855378
	H332	H	-0.095345	0.983220	0.855378
	O333	O	-0.501553	0.656869	-0.333382
	H334	H	-0.513084	0.655477	-0.342461
	H335	H	-0.515399	0.645931	-0.340156
	O336	O	1.201605	0.911888	-0.110826
	H337	H	1.189902	0.897492	-0.121015
	H338	H	1.212326	0.928044	-0.111528
	O339	O	0.010490	0.962639	0.815326
	H340	H	0.011649	0.991720	0.819351
	H341	H	0.002945	0.973118	0.817717
	O342	O	0.352946	0.613601	0.662465
	H343	H	0.352274	0.603276	0.648757
	H344	H	0.358987	0.606469	0.662764
	O345	O	-0.033258	0.165725	0.962071
	H346	H	-0.051438	0.168982	0.971025
	H347	H	-0.033399	0.176010	0.965244
	O348	O	0.472879	0.520426	0.393403
	H349	H	0.492360	0.525020	0.391380
	H350	H	0.464488	0.518930	0.395717
	O351	O	0.857093	1.130578	-0.072490
	H352	H	0.849527	1.135004	-0.086203
	H353	H	0.850050	1.126170	-0.049642
	O354	O	0.999386	0.970135	0.830003
	H355	H	0.986957	0.962597	0.826483
	H356	H	1.013184	0.963546	0.847817
	O357	O	0.165769	-0.043346	0.049492
	H358	H	0.158613	-0.033165	0.033624
	H359	H	0.171412	-0.067357	0.037649
	O360	O	0.633363	0.566016	0.340789
	H361	H	0.639746	0.546520	0.340782
	H362	H	0.639091	0.570173	0.349743
	O363	O	1.126827	-0.198369	-0.190729
	H364	H	1.132866	-0.214124	-0.216677
	H365	H	1.109812	-0.186980	-0.191769
	O366	O	-0.179106	-0.151381	1.140502
	H367	H	-0.171665	-0.140764	1.131069
	H368	H	-0.154722	-0.156280	1.145048
	O369	O	0.811157	0.096731	1.094091
	H370	H	0.806461	0.083561	1.109274
	H371	H	0.815082	0.114551	1.101564
	O372	O	0.297917	0.429598	0.698527
	H373	H	0.270051	0.419243	0.720303
	H374	H	0.299122	0.404079	0.695132
	O375	O	-0.319567	-0.392393	0.502074
	H376	H	-0.317498	-0.398153	0.495378
	H377	H	-0.314582	-0.376310	0.516744
	O378	O	0.687374	0.707235	0.527038
	H379	H	0.704454	0.731975	0.525677
	H380	H	0.673042	0.698142	0.550805
	O381	O	0.036731	1.174069	0.118575
	H382	H	0.041885	1.186898	0.122228
	H383	H	0.039719	1.175032	0.122815
	O384	O	0.386158	0.453203	0.401945
	H385	H	0.405401	0.453009	0.409814
	H386	H	0.381893	0.460608	0.397486
	O387	O	0.177763	0.162583	0.197064
	H388	H	0.198376	0.161918	0.196945
	H389	H	0.169056	0.149964	0.200253
	O390	O	0.955422	1.086908	-0.033947
	H391	H	0.955131	1.101773	-0.020983
	H392	H	0.944239	1.094411	-0.032883
	O393	O	0.996290	-0.163958	1.020414
	H394	H	1.002168	-0.165088	1.017485
	H395	H	0.989574	-0.162722	1.012605
	O396	O	0.615491	0.417698	0.692298
	H397	H	0.637430	0.446848	0.703893
	H398	H	0.600088	0.426018	0.680909
	O399	O	-0.083373	1.083881	0.198808
	H400	H	-0.061188	1.065829	0.212815
	H401	H	-0.079895	1.082248	0.196170
	O402	O	1.554775	1.345873	-0.391224
	H403	H	1.567432	1.354656	-0.397012
	H404	H	1.564992	1.348371	-0.385963
	O405	O	0.597199	0.335926	0.370491
	H406	H	0.591812	0.329649	0.367053
	H407	H	0.584249	0.335726	0.386472
	O408	O	0.425134	0.474162	0.500832
	H409	H	0.438227	0.468907	0.507737
	H410	H	0.413168	0.489163	0.504652
	O411	O	1.052946	1.079411	1.063295
	H412	H	1.048304	1.076212	1.054365
	H413	H	1.055705	1.067519	1.064662
	O414	O	0.334244	0.602445	0.525472
	H415	H	0.331110	0.615054	0.520932
	H416	H	0.342607	0.611727	0.522512
	O417	O	-0.122348	1.058609	0.906400
	H418	H	-0.136749	1.050425	0.910399
	H419	H	-0.125853	1.078257	0.894236
	O420	O	0.024131	1.122826	0.942644
	H421	H	0.020825	1.124505	0.963135
	H422	H	0.021609	1.103720	0.927689
	O423	O	-0.103290	0.830063	0.031325
	H424	H	-0.097489	0.820540	0.046850
	H425	H	-0.113323	0.823782	0.033935
	O426	O	-0.037104	-0.145394	1.105269
	H427	H	-0.034596	-0.160417	1.117832
	H428	H	-0.012410	-0.138651	1.096315
	O429	O	0.504034	0.291847	0.661714
	H430	H	0.520515	0.290074	0.660006
	H431	H	0.503291	0.283748	0.676919
	O432	O	0.354473	0.397525	0.403547
	H433	H	0.363294	0.405499	0.402184
	H434	H	0.372778	0.399632	0.405020
	O435	O	-0.276348	0.493888	-0.273783
	H436	H	-0.265366	0.508685	-0.271709
	H437	H	-0.270735	0.523917	-0.265477
	O438	O	-0.005385	0.843319	1.117031
	H439	H	0.009474	0.834710	1.106140
	H440	H	-0.001514	0.862029	1.113853
	O441	O	0.395898	0.602464	0.306228
	H442	H	0.391879	0.623139	0.287837
	H443	H	0.382857	0.589840	0.319246
