data_Molecule from HDF5

_cell_length_a		16.223366
_cell_length_b		16.220137
_cell_length_c		16.270300
_cell_angle_alpha	90.022260
_cell_angle_beta	90.023154
_cell_angle_gamma	89.890154
_symmetry_space_group_name_H-M	'P 1'
_symmetry_Int_Tables_number		1

loop_
	_symmetry_equiv_pos_as_xyz
	x,y,z

loop_
	_atom_site_label
	_atom_site_type_symbol
	_atom_site_fract_x
	_atom_site_fract_y
	_atom_site_fract_z
	H0	H	0.401920	0.835906	0.713998
	H1	H	0.598386	0.164277	0.713642
	H2	H	0.597861	0.835652	0.287102
	H3	H	0.400262	0.164079	0.285892
	H4	H	0.713061	0.402209	0.836348
	H5	H	0.713449	0.597539	0.164834
	H6	H	0.285219	0.598603	0.836146
	H7	H	0.286689	0.402795	0.164213
	H8	H	0.835764	0.712948	0.402044
	H9	H	0.164960	0.713329	0.597736
	H10	H	0.834931	0.287625	0.596830
	H11	H	0.164358	0.286662	0.402290
	H12	H	0.836449	0.401116	0.715040
	H13	H	0.164041	0.598903	0.714303
	H14	H	0.836288	0.598573	0.285615
	H15	H	0.164811	0.401229	0.285459
	H16	H	0.401610	0.714386	0.835972
	H17	H	0.597492	0.714079	0.163745
	H18	H	0.599093	0.284798	0.837165
	H19	H	0.401312	0.285434	0.164219
	H20	H	0.715285	0.836180	0.400886
	H21	H	0.712739	0.164285	0.597520
	H22	H	0.287071	0.835182	0.596678
	H23	H	0.285852	0.164538	0.402797
	H24	H	0.903245	0.335569	0.213647
	H25	H	0.098768	0.664737	0.213628
	H26	H	0.099954	0.336489	0.784726
	H27	H	0.901975	0.664770	0.786158
	H28	H	0.214014	0.901512	0.336157
	H29	H	0.213235	0.097873	0.663897
	H30	H	0.784420	0.098582	0.335898
	H31	H	0.785119	0.901080	0.664351
	H32	H	0.335657	0.213991	0.902228
	H33	H	0.664498	0.212970	0.098459
	H34	H	0.335735	0.786528	0.097777
	H35	H	0.664827	0.785984	0.902416
	H36	H	0.336176	0.900533	0.215047
	H37	H	0.663735	0.098294	0.215519
	H38	H	0.336112	0.097756	0.786955
	H39	H	0.664394	0.900622	0.786480
	H40	H	0.900799	0.214455	0.335660
	H41	H	0.097559	0.213744	0.663285
	H42	H	0.096951	0.786472	0.335097
	H43	H	0.902429	0.785708	0.663969
	H44	H	0.214094	0.335325	0.902052
	H45	H	0.214484	0.664424	0.098123
	H46	H	0.787171	0.335174	0.098017
	H47	H	0.786371	0.664815	0.902626
	H48	H	0.403132	0.119740	0.598781
	H49	H	0.598432	0.881868	0.589909
	H50	H	0.580952	0.112060	0.412647
	H51	H	0.410791	0.882528	0.404245
	H52	H	0.603048	0.407993	0.119741
	H53	H	0.585994	0.596255	0.883695
	H54	H	0.401538	0.600129	0.120178
	H55	H	0.402691	0.409076	0.882083
	H56	H	0.115201	0.586281	0.409471
	H57	H	0.877359	0.602464	0.601504
	H58	H	0.114659	0.410178	0.587634
	H59	H	0.883244	0.412894	0.401858
	H60	H	0.117540	0.409430	0.598992
	H61	H	0.885978	0.595690	0.581059
	H62	H	0.119795	0.592635	0.398237
	H63	H	0.880400	0.401767	0.403737
	H64	H	0.403663	0.585588	0.115507
	H65	H	0.600028	0.597809	0.880205
	H66	H	0.588207	0.413602	0.113677
	H67	H	0.411992	0.409148	0.885828
	H68	H	0.603581	0.118336	0.415264
	H69	H	0.593267	0.880954	0.599239
	H70	H	0.411689	0.115921	0.594334
	H71	H	0.406918	0.884283	0.411927
	H72	H	0.905642	0.617144	0.093291
	H73	H	0.106332	0.381989	0.084749
	H74	H	0.096555	0.617383	0.910983
	H75	H	0.905300	0.382396	0.906992
	H76	H	0.091986	0.908267	0.615664
	H77	H	0.100578	0.090515	0.380665
	H78	H	0.901776	0.085029	0.615202
	H79	H	0.912768	0.898506	0.382338
	H80	H	0.616588	0.096278	0.913323
	H81	H	0.382915	0.091517	0.094310
	H82	H	0.618248	0.907412	0.097654
	H83	H	0.381268	0.908530	0.901771
	H84	H	0.618024	0.904167	0.093300
	H85	H	0.382169	0.093611	0.095118
	H86	H	0.615383	0.085203	0.906478
	H87	H	0.381644	0.901950	0.907376
	H88	H	0.915877	0.094795	0.614037
	H89	H	0.087734	0.087831	0.385598
	H90	H	0.091511	0.903766	0.617340
	H91	H	0.896478	0.907162	0.380842
	H92	H	0.093926	0.619833	0.900736
	H93	H	0.093490	0.378539	0.107297
	H94	H	0.906981	0.617675	0.094074
	H95	H	0.907582	0.382423	0.904130
	H96	H	0.403219	0.117292	0.589261
	H97	H	0.588366	0.883804	0.590586
	H98	H	0.591867	0.121544	0.394567
	H99	H	0.402167	0.880970	0.405127
	H100	H	0.589972	0.397690	0.119736
	H101	H	0.594415	0.584714	0.885949
	H102	H	0.415096	0.595574	0.115052
	H103	H	0.407901	0.400952	0.881991
	H104	H	0.119009	0.599984	0.409886
	H105	H	0.884659	0.581035	0.597989
	H106	H	0.119483	0.399999	0.592172
	H107	H	0.884483	0.408145	0.412626
	H108	H	0.907392	0.617266	0.092076
	H109	H	0.080777	0.388550	0.086586
	H110	H	0.087217	0.615120	0.907882
	H111	H	0.908963	0.384026	0.907294
	H112	H	0.095583	0.906101	0.617669
	H113	H	0.091001	0.100739	0.381066
	H114	H	0.900942	0.101576	0.620288
	H115	H	0.910703	0.916428	0.387442
	H116	H	0.620004	0.096670	0.900545
	H117	H	0.382773	0.093784	0.092947
	H118	H	0.615809	0.909354	0.092413
	H119	H	0.384393	0.910117	0.909521
	C120	C	0.378206	0.008704	0.622012
	C121	C	0.621378	0.991443	0.621350
	C122	C	0.620777	0.008526	0.378930
	C123	C	0.377858	0.991443	0.378633
	C124	C	0.621684	0.378264	0.009198
	C125	C	0.621750	0.621670	0.991532
	C126	C	0.378270	0.622093	0.008547
	C127	C	0.378902	0.378364	0.991888
	C128	C	0.009038	0.621445	0.377903
	C129	C	0.991744	0.621425	0.621423
	C130	C	0.008457	0.378385	0.621038
	C131	C	0.991472	0.378788	0.377776
	C132	C	0.878757	0.508472	0.121511
	C133	C	0.121820	0.491864	0.121558
	C134	C	0.121608	0.508847	0.878164
	C135	C	0.878543	0.491602	0.878020
	C136	C	0.121270	0.877990	0.508399
	C137	C	0.121362	0.121433	0.491001
	C138	C	0.877442	0.122229	0.508165
	C139	C	0.878335	0.878751	0.491943
	C140	C	0.508797	0.121246	0.878811
	C141	C	0.491349	0.121083	0.122261
	C142	C	0.508475	0.878777	0.122126
	C143	C	0.491372	0.878163	0.878200
	C144	C	0.381297	0.884719	0.676307
	C145	C	0.618356	0.115374	0.675626
	C146	C	0.618571	0.884724	0.324269
	C147	C	0.380258	0.115072	0.324110
	C148	C	0.676248	0.381227	0.885534
	C149	C	0.676447	0.618852	0.115312
	C150	C	0.323194	0.619200	0.885105
	C151	C	0.324030	0.381615	0.115263
	C152	C	0.884979	0.675858	0.381284
	C153	C	0.115758	0.675449	0.618145
	C154	C	0.884371	0.324541	0.617699
	C155	C	0.115284	0.323527	0.380652
	C156	C	0.885028	0.381027	0.676355
	C157	C	0.115483	0.618841	0.676230
	C158	C	0.885259	0.619286	0.323261
	C159	C	0.115500	0.380623	0.322856
	C160	C	0.380689	0.676807	0.885079
	C161	C	0.618880	0.676671	0.115051
	C162	C	0.619409	0.322924	0.885862
	C163	C	0.381219	0.323533	0.115284
	C164	C	0.676587	0.885081	0.381086
	C165	C	0.675296	0.115396	0.617990
	C166	C	0.324027	0.884624	0.618317
	C167	C	0.323419	0.115552	0.382105
	C168	C	0.881864	0.384701	0.176200
	C169	C	0.119232	0.615654	0.176043
	C170	C	0.119694	0.385094	0.823210
	C171	C	0.881074	0.615500	0.823487
	C172	C	0.176414	0.880963	0.384975
	C173	C	0.175649	0.118596	0.614736
	C174	C	0.822364	0.119274	0.384803
	C175	C	0.823796	0.881455	0.615470
	C176	C	0.384791	0.176007	0.882119
	C177	C	0.615435	0.175330	0.119203
	C178	C	0.384757	0.824241	0.118561
	C179	C	0.615431	0.823411	0.881739
	C180	C	0.384942	0.880884	0.176920
	C181	C	0.615124	0.118508	0.177326
	C182	C	0.384943	0.118790	0.824220
	C183	C	0.615350	0.880601	0.824138
	C184	C	0.880268	0.176664	0.384640
	C185	C	0.118236	0.176107	0.614462
	C186	C	0.118402	0.823869	0.384400
	C187	C	0.881656	0.823794	0.615307
	C188	C	0.176376	0.384755	0.881555
	C189	C	0.176788	0.615414	0.118836
	C190	C	0.824143	0.384637	0.118841
	C191	C	0.823802	0.615711	0.881509
	C192	C	0.399718	0.095325	0.600562
	C193	C	0.599844	0.904670	0.599695
	C194	C	0.598451	0.095094	0.400836
	C195	C	0.400099	0.904961	0.400499
	C196	C	0.600006	0.399876	0.095317
	C197	C	0.599873	0.599554	0.905607
	C198	C	0.400371	0.600237	0.094642
	C199	C	0.401050	0.399848	0.905747
	C200	C	0.095719	0.599445	0.399519
	C201	C	0.905093	0.599452	0.599795
	C202	C	0.094948	0.400338	0.599272
	C203	C	0.905104	0.401069	0.399401
	C204	C	0.900384	0.595133	0.099584
	C205	C	0.099886	0.405315	0.099497
	C206	C	0.099099	0.595077	0.899985
	C207	C	0.900836	0.405302	0.899537
	C208	C	0.099415	0.899544	0.594542
	C209	C	0.099457	0.099390	0.404713
	C210	C	0.899656	0.100278	0.594294
	C211	C	0.900163	0.900669	0.405637
	C212	C	0.595015	0.099337	0.900392
	C213	C	0.405064	0.099267	0.100529
	C214	C	0.595165	0.900585	0.100609
	C215	C	0.404770	0.900392	0.899717
	Zn216	Zn	0.500574	-0.000225	0.749770
	Zn217	Zn	0.499698	-0.000172	0.250772
	Zn218	Zn	0.750502	0.500019	0.000169
	Zn219	Zn	0.249961	0.499962	-0.000136
	Zn220	Zn	-0.000099	0.749292	0.499879
	Zn221	Zn	-0.000082	0.250095	0.499430
	Zn222	Zn	0.000335	0.500226	0.749340
	Zn223	Zn	0.000489	0.500291	0.249586
	Zn224	Zn	0.499862	0.750771	0.000020
	Zn225	Zn	0.500212	0.249364	0.000695
	Zn226	Zn	0.749401	-0.000048	0.499988
	Zn227	Zn	0.249765	-0.000121	0.500003
	N228	N	0.414251	0.962787	0.678592
	N229	N	0.585690	0.037209	0.677957
	N230	N	0.584470	0.962533	0.322995
	N231	N	0.413408	0.036987	0.321845
	N232	N	0.677759	0.414823	0.963170
	N233	N	0.678520	0.585539	0.037670
	N234	N	0.321639	0.585672	0.962743
	N235	N	0.322569	0.414988	0.037639
	N236	N	0.963066	0.677362	0.414451
	N237	N	0.037844	0.677192	0.584919
	N238	N	0.962279	0.322815	0.584258
	N239	N	0.037413	0.322071	0.413967
	N240	N	0.963219	0.413670	0.678583
	N241	N	0.037301	0.585984	0.678322
	N242	N	0.963319	0.586232	0.321106
	N243	N	0.037649	0.414543	0.321151
	N244	N	0.414144	0.678811	0.962756
	N245	N	0.585454	0.678374	0.037266
	N246	N	0.585829	0.321159	0.963468
	N247	N	0.414609	0.321344	0.037579
	N248	N	0.678120	0.962988	0.414179
	N249	N	0.677109	0.037389	0.584936
	N250	N	0.322001	0.962645	0.585241
	N251	N	0.321874	0.037624	0.415305
	N252	N	0.915022	0.462645	0.177869
	N253	N	0.085720	0.537795	0.177644
	N254	N	0.086226	0.463049	0.821101
	N255	N	0.914499	0.537423	0.821134
	N256	N	0.178221	0.913933	0.462914
	N257	N	0.177607	0.085218	0.537096
	N258	N	0.820583	0.086098	0.462636
	N259	N	0.821869	0.914866	0.537867
	N260	N	0.462664	0.177575	0.915253
	N261	N	0.537603	0.177139	0.085678
	N262	N	0.462665	0.822949	0.085231
	N263	N	0.537395	0.821980	0.914592
	N264	N	0.462770	0.914107	0.178975
	N265	N	0.536995	0.085828	0.179514
	N266	N	0.462891	0.085400	0.822018
	N267	N	0.537251	0.913857	0.821779
	N268	N	0.913887	0.178431	0.462238
	N269	N	0.084990	0.177796	0.536565
	N270	N	0.084739	0.821780	0.462005
	N271	N	0.914914	0.821990	0.537460
	N272	N	0.177806	0.462720	0.915030
	N273	N	0.178361	0.537518	0.085518
	N274	N	0.822437	0.462593	0.085319
	N275	N	0.822343	0.537847	0.914716
