data_Molecule from HDF5

_cell_length_a		16.303113
_cell_length_b		16.157504
_cell_length_c		16.056395
_cell_angle_alpha	91.136905
_cell_angle_beta	90.868564
_cell_angle_gamma	90.182622
_symmetry_space_group_name_H-M	'P 1'
_symmetry_Int_Tables_number		1

loop_
	_symmetry_equiv_pos_as_xyz
	x,y,z

loop_
	_atom_site_label
	_atom_site_type_symbol
	_atom_site_fract_x
	_atom_site_fract_y
	_atom_site_fract_z
	H0	H	0.401980	0.834539	0.700417
	H1	H	0.598987	0.164850	0.715928
	H2	H	0.590368	0.835941	0.280388
	H3	H	0.400550	0.168654	0.287170
	H4	H	0.707783	0.394618	0.832228
	H5	H	0.711595	0.606681	0.161590
	H6	H	0.275643	0.597739	0.833951
	H7	H	0.286446	0.405803	0.164804
	H8	H	0.832617	0.711417	0.397535
	H9	H	0.158320	0.719686	0.604996
	H10	H	0.832722	0.284468	0.591753
	H11	H	0.158681	0.283328	0.396858
	H12	H	0.830442	0.404036	0.706259
	H13	H	0.158383	0.602509	0.718767
	H14	H	0.832270	0.596224	0.282029
	H15	H	0.160350	0.400316	0.284413
	H16	H	0.393153	0.706068	0.829585
	H17	H	0.596096	0.719846	0.160561
	H18	H	0.589773	0.282059	0.832159
	H19	H	0.398101	0.290458	0.163307
	H20	H	0.710770	0.836149	0.391043
	H21	H	0.716885	0.164129	0.603250
	H22	H	0.279656	0.838768	0.593645
	H23	H	0.279499	0.165836	0.396059
	H24	H	0.901037	0.333739	0.203349
	H25	H	0.093528	0.665642	0.216276
	H26	H	0.088700	0.336043	0.782932
	H27	H	0.895697	0.667650	0.788412
	H28	H	0.206588	0.898072	0.329649
	H29	H	0.214805	0.105771	0.660563
	H30	H	0.779293	0.096660	0.331783
	H31	H	0.783468	0.902484	0.660455
	H32	H	0.331387	0.211227	0.896583
	H33	H	0.657355	0.221463	0.103434
	H34	H	0.330738	0.788822	0.087907
	H35	H	0.657240	0.780430	0.893501
	H36	H	0.330729	0.906464	0.204144
	H37	H	0.659570	0.103656	0.215940
	H38	H	0.332551	0.095984	0.779507
	H39	H	0.660503	0.899361	0.782690
	H40	H	0.895899	0.208447	0.330005
	H41	H	0.098759	0.217300	0.661484
	H42	H	0.090624	0.782216	0.331520
	H43	H	0.900960	0.793832	0.663494
	H44	H	0.206892	0.335690	0.897396
	H45	H	0.213331	0.664470	0.105713
	H46	H	0.777863	0.337410	0.095821
	H47	H	0.776349	0.665110	0.898245
	H48	H	0.405460	0.119698	0.590226
	H49	H	0.590389	0.884218	0.583833
	H50	H	0.585658	0.121459	0.396413
	H51	H	0.410618	0.884248	0.392499
	H52	H	0.600996	0.411908	0.119944
	H53	H	0.586405	0.596703	0.874994
	H54	H	0.401911	0.600811	0.118303
	H55	H	0.395794	0.404117	0.877598
	H56	H	0.112694	0.592955	0.409993
	H57	H	0.879834	0.583981	0.596655
	H58	H	0.112374	0.411741	0.596978
	H59	H	0.878257	0.400283	0.400427
	H60	H	0.113037	0.404808	0.590952
	H61	H	0.872631	0.607994	0.599616
	H62	H	0.113360	0.591796	0.408621
	H63	H	0.880194	0.405225	0.402679
	H64	H	0.403888	0.594262	0.116331
	H65	H	0.591793	0.582943	0.877229
	H66	H	0.584510	0.424203	0.110632
	H67	H	0.398688	0.406575	0.879304
	H68	H	0.582243	0.113151	0.419567
	H69	H	0.594401	0.882209	0.585501
	H70	H	0.406926	0.119321	0.588249
	H71	H	0.400678	0.887039	0.410843
	H72	H	0.902102	0.621897	0.100055
	H73	H	0.087115	0.383349	0.090497
	H74	H	0.088236	0.618870	0.912775
	H75	H	0.893306	0.378462	0.891559
	H76	H	0.091862	0.912531	0.614069
	H77	H	0.083701	0.089615	0.378543
	H78	H	0.906716	0.087775	0.612679
	H79	H	0.905033	0.899667	0.376118
	H80	H	0.612830	0.088524	0.901439
	H81	H	0.382742	0.081315	0.089475
	H82	H	0.613357	0.903586	0.087072
	H83	H	0.377728	0.899086	0.896271
	H84	H	0.610220	0.912848	0.083411
	H85	H	0.373183	0.101701	0.101339
	H86	H	0.615146	0.100371	0.908540
	H87	H	0.378545	0.905274	0.899706
	H88	H	0.914716	0.097412	0.614118
	H89	H	0.089844	0.095274	0.374782
	H90	H	0.093416	0.913079	0.616105
	H91	H	0.896433	0.902977	0.375573
	H92	H	0.089312	0.619208	0.911845
	H93	H	0.093434	0.382515	0.084205
	H94	H	0.912539	0.615252	0.088205
	H95	H	0.911891	0.386786	0.900483
	H96	H	0.404963	0.119223	0.588287
	H97	H	0.590481	0.881233	0.587797
	H98	H	0.603931	0.122357	0.412715
	H99	H	0.389913	0.878443	0.393647
	H100	H	0.581071	0.402903	0.116133
	H101	H	0.577808	0.585795	0.880657
	H102	H	0.408291	0.598826	0.115822
	H103	H	0.399657	0.403063	0.879044
	H104	H	0.113269	0.594115	0.409378
	H105	H	0.881780	0.600703	0.577435
	H106	H	0.110194	0.413233	0.587989
	H107	H	0.877946	0.405098	0.397253
	H108	H	0.896065	0.618045	0.084623
	H109	H	0.094891	0.379317	0.092878
	H110	H	0.087987	0.619509	0.911051
	H111	H	0.894209	0.384956	0.912854
	H112	H	0.092375	0.912870	0.615739
	H113	H	0.091729	0.087418	0.376067
	H114	H	0.902439	0.098561	0.618623
	H115	H	0.903587	0.908385	0.378902
	H116	H	0.609131	0.089604	0.915413
	H117	H	0.379759	0.103570	0.078327
	H118	H	0.612333	0.912269	0.093650
	H119	H	0.378067	0.905795	0.892550
	C120	C	0.376916	0.010548	0.615859
	C121	C	0.621319	0.991532	0.618501
	C122	C	0.617920	0.009897	0.376578
	C123	C	0.373326	0.992894	0.372796
	C124	C	0.615646	0.380007	0.006023
	C125	C	0.616058	0.621599	0.986966
	C126	C	0.373708	0.622634	0.006787
	C127	C	0.372789	0.378904	0.988904
	C128	C	0.004878	0.620794	0.378425
	C129	C	0.986353	0.626250	0.622675
	C130	C	0.003681	0.380441	0.617819
	C131	C	0.986947	0.376014	0.373355
	C132	C	0.874954	0.509534	0.118153
	C133	C	0.119528	0.490961	0.121487
	C134	C	0.115777	0.509994	0.879717
	C135	C	0.871177	0.492513	0.874908
	C136	C	0.118633	0.880458	0.505567
	C137	C	0.118706	0.122477	0.486178
	C138	C	0.876854	0.120927	0.505397
	C139	C	0.874969	0.878317	0.487039
	C140	C	0.504131	0.120363	0.876841
	C141	C	0.486537	0.125701	0.121349
	C142	C	0.503628	0.880996	0.114971
	C143	C	0.486581	0.875132	0.869830
	C144	C	0.380228	0.884945	0.666147
	C145	C	0.619488	0.115279	0.677737
	C146	C	0.612590	0.885305	0.318542
	C147	C	0.378050	0.118051	0.321735
	C148	C	0.670095	0.376693	0.881740
	C149	C	0.673152	0.624625	0.111766
	C150	C	0.315201	0.617767	0.882538
	C151	C	0.321826	0.384206	0.114726
	C152	C	0.881480	0.674405	0.378166
	C153	C	0.109270	0.681600	0.623662
	C154	C	0.881180	0.323189	0.613120
	C155	C	0.110297	0.321370	0.376931
	C156	C	0.879753	0.383175	0.669659
	C157	C	0.109207	0.623377	0.680549
	C158	C	0.881463	0.617099	0.320686
	C159	C	0.110877	0.379665	0.320855
	C160	C	0.373664	0.672037	0.880245
	C161	C	0.615718	0.680975	0.111200
	C162	C	0.611542	0.320616	0.881809
	C163	C	0.377501	0.326738	0.113892
	C164	C	0.672303	0.885421	0.373796
	C165	C	0.678353	0.114944	0.621428
	C166	C	0.319668	0.886910	0.612771
	C167	C	0.317751	0.116774	0.375853
	C168	C	0.878894	0.384042	0.168628
	C169	C	0.115627	0.615722	0.178864
	C170	C	0.110711	0.385446	0.821698
	C171	C	0.874106	0.617399	0.823378
	C172	C	0.170546	0.878880	0.379831
	C173	C	0.175801	0.123836	0.611249
	C174	C	0.818504	0.116957	0.381025
	C175	C	0.821440	0.882714	0.611711
	C176	C	0.380734	0.174292	0.876535
	C177	C	0.608896	0.182806	0.122036
	C178	C	0.379992	0.826592	0.109595
	C179	C	0.608889	0.819117	0.873627
	C180	C	0.379905	0.884827	0.167667
	C181	C	0.610053	0.123956	0.178190
	C182	C	0.381346	0.116845	0.818347
	C183	C	0.610560	0.878275	0.818199
	C184	C	0.876453	0.172658	0.380060
	C185	C	0.118302	0.179634	0.611601
	C186	C	0.112891	0.821224	0.380921
	C187	C	0.879465	0.828437	0.613072
	C188	C	0.169507	0.385371	0.878328
	C189	C	0.174768	0.615329	0.123610
	C190	C	0.817713	0.385882	0.115133
	C191	C	0.814738	0.616100	0.878087
	C192	C	0.399455	0.097106	0.595232
	C193	C	0.598592	0.904979	0.592976
	C194	C	0.596733	0.096453	0.402073
	C195	C	0.394120	0.905722	0.393152
	C196	C	0.594910	0.405655	0.093067
	C197	C	0.592395	0.596001	0.900077
	C198	C	0.397718	0.603598	0.094063
	C199	C	0.392265	0.398708	0.901305
	C200	C	0.090817	0.599286	0.402230
	C201	C	0.900113	0.603972	0.598372
	C202	C	0.089647	0.403136	0.597822
	C203	C	0.901130	0.397328	0.393959
	C204	C	0.897118	0.595965	0.097203
	C205	C	0.098180	0.404210	0.096585
	C206	C	0.094608	0.596648	0.904650
	C207	C	0.893136	0.405698	0.895485
	C208	C	0.098751	0.905375	0.592537
	C209	C	0.095347	0.098076	0.399019
	C210	C	0.901057	0.100550	0.592558
	C211	C	0.895359	0.897842	0.399484
	C212	C	0.590144	0.099021	0.901213
	C213	C	0.400685	0.102327	0.096921
	C214	C	0.589749	0.903236	0.094326
	C215	C	0.400528	0.896937	0.890151
	Zn216	Zn	0.497346	-0.000200	0.744621
	Zn217	Zn	0.496216	0.002370	0.247228
	Zn218	Zn	0.744377	0.500940	-0.002824
	Zn219	Zn	0.246960	0.500877	-0.000460
	Zn220	Zn	-0.004399	0.752079	0.498522
	Zn221	Zn	-0.002946	0.248709	0.495554
	Zn222	Zn	-0.006003	0.502777	0.749079
	Zn223	Zn	-0.003990	0.499089	0.247614
	Zn224	Zn	0.494608	0.748643	-0.006019
	Zn225	Zn	0.494172	0.251722	-0.002516
	Zn226	Zn	0.749087	-0.000351	0.496441
	Zn227	Zn	0.246572	0.002231	0.495440
	N228	N	0.415246	0.962659	0.668284
	N229	N	0.584749	0.037429	0.676023
	N230	N	0.579726	0.963645	0.320018
	N231	N	0.411922	0.040066	0.319705
	N232	N	0.672734	0.413129	0.960140
	N233	N	0.673690	0.588468	0.033435
	N234	N	0.314961	0.587817	0.962198
	N235	N	0.318833	0.416127	0.036035
	N236	N	0.959083	0.676806	0.413572
	N237	N	0.031699	0.683392	0.588203
	N238	N	0.959223	0.321458	0.581465
	N239	N	0.032335	0.318715	0.408658
	N240	N	0.956946	0.417851	0.672756
	N241	N	0.031498	0.589828	0.679946
	N242	N	0.959231	0.584415	0.320627
	N243	N	0.033379	0.412712	0.318177
	N244	N	0.409449	0.675385	0.958446
	N245	N	0.580828	0.679162	0.032447
	N246	N	0.578645	0.322635	0.960169
	N247	N	0.408477	0.323090	0.034554
	N248	N	0.675673	0.963870	0.409254
	N249	N	0.679521	0.036897	0.585295
	N250	N	0.317451	0.965901	0.582117
	N251	N	0.314778	0.037849	0.406967
	N252	N	0.914036	0.461655	0.170530
	N253	N	0.081871	0.537472	0.177764
	N254	N	0.078008	0.464083	0.822310
	N255	N	0.908463	0.539607	0.821172
	N256	N	0.174418	0.914929	0.458297
	N257	N	0.176308	0.089039	0.532308
	N258	N	0.818567	0.085713	0.460104
	N259	N	0.818393	0.912864	0.532265
	N260	N	0.458144	0.176737	0.912322
	N261	N	0.531050	0.183725	0.087104
	N262	N	0.457895	0.824205	0.077586
	N263	N	0.530800	0.816768	0.904747
	N264	N	0.457825	0.918047	0.171221
	N265	N	0.532888	0.089209	0.177818
	N266	N	0.459212	0.084187	0.818465
	N267	N	0.533439	0.912698	0.815654
	N268	N	0.912113	0.175237	0.458349
	N269	N	0.083801	0.179235	0.532790
	N270	N	0.081482	0.821953	0.460058
	N271	N	0.912251	0.825637	0.534542
	N272	N	0.172680	0.463712	0.913810
	N273	N	0.177404	0.536769	0.088638
	N274	N	0.814890	0.464872	0.084514
	N275	N	0.812889	0.537343	0.909571
	O276	O	0.035268	0.014110	-0.000043
	H277	H	0.044317	-0.003669	-0.009863
	H278	H	0.020888	0.023878	0.003816
	O279	O	0.605536	0.585602	0.530562
	H280	H	0.609061	0.593982	0.523392
	H281	H	0.600760	0.592323	0.535497
	O282	O	0.558604	0.436849	0.554564
	H283	H	0.549450	0.434652	0.543907
	H284	H	0.561315	0.436030	0.555931
	O285	O	-0.034954	0.914194	0.994608
	H286	H	-0.037636	0.918688	0.999651
	H287	H	-0.033658	0.909901	0.995565
	O288	O	0.550713	0.474560	0.474118
	H289	H	0.549196	0.474922	0.466859
	H290	H	0.563185	0.474243	0.473411
	O291	O	0.993815	1.016437	0.871658
	H292	H	0.992546	1.021581	0.864218
	H293	H	0.981981	1.017999	0.863128
	O294	O	1.004539	0.919413	0.927502
	H295	H	1.006026	0.920629	0.914838
	H296	H	1.004253	0.920352	0.927876
	O297	O	1.091506	0.107730	1.089810
	H298	H	1.100238	0.126131	1.090559
	H299	H	1.096645	0.115546	1.079799
	O300	O	0.543798	0.481561	0.425182
	H301	H	0.547663	0.476822	0.428120
	H302	H	0.553137	0.484238	0.442357
	O303	O	1.019350	-0.049878	0.025411
	H304	H	1.027925	-0.050459	0.032486
	H305	H	1.018259	-0.052711	0.020222
	O306	O	0.004342	1.096521	1.073989
	H307	H	0.006160	1.099643	1.079083
	H308	H	0.009753	1.105193	1.084979
	O309	O	0.450674	0.530021	0.517451
	H310	H	0.460993	0.532607	0.517560
	H311	H	0.446850	0.535257	0.518489
	O312	O	0.994506	-0.019490	1.005692
	H313	H	0.994090	-0.013907	1.001047
	H314	H	1.002859	-0.026581	1.012580
	O315	O	0.487905	0.519717	0.593299
	H316	H	0.497888	0.530215	0.592719
	H317	H	0.490186	0.516171	0.609218
	O318	O	0.402948	0.445677	0.479554
	H319	H	0.400281	0.447218	0.478334
	H320	H	0.395390	0.440130	0.491730
	O321	O	1.034783	0.968195	0.972784
	H322	H	1.033430	0.967961	0.972075
	H323	H	1.035870	0.971760	0.968644
	O324	O	0.473190	0.489064	0.548810
	H325	H	0.480001	0.499990	0.555897
	H326	H	0.458501	0.499293	0.549666
	O327	O	0.465166	0.489297	0.486855
	H328	H	0.471511	0.490414	0.491343
	H329	H	0.471636	0.489640	0.486675
	O330	O	1.039484	-0.026333	0.938765
	H331	H	1.040945	-0.021121	0.945732
	H332	H	1.040229	-0.023707	0.953272
	O333	O	0.892135	1.085126	-0.008510
	H334	H	0.892092	1.080922	-0.004844
	H335	H	0.877846	1.087400	-0.012024
	O336	O	0.520190	0.469533	0.386391
	H337	H	0.527629	0.448698	0.370540
	H338	H	0.503205	0.479048	0.383047
	O339	O	0.555129	0.622994	0.603158
	H340	H	0.554266	0.635963	0.593875
	H341	H	0.571606	0.603466	0.599866
	O342	O	-0.015592	0.980199	0.058443
	H343	H	-0.000638	0.978687	0.064378
	H344	H	-0.017384	0.981666	0.055312
	O345	O	0.010809	0.005575	-0.057193
	H346	H	0.003159	-0.006444	-0.059281
	H347	H	0.003493	0.013752	-0.068618
	O348	O	0.441534	0.590838	0.404261
	H349	H	0.434564	0.592973	0.404032
	H350	H	0.434666	0.601715	0.397830
	O351	O	0.566792	0.506613	0.593474
	H352	H	0.555642	0.503762	0.582805
	H353	H	0.576067	0.496837	0.587654
	O354	O	0.480431	0.521870	0.433433
	H355	H	0.463456	0.528935	0.439558
	H356	H	0.476423	0.507148	0.431521
	O357	O	0.445337	0.523809	0.517473
	H358	H	0.444510	0.519456	0.523588
	H359	H	0.439226	0.522496	0.515486
	O360	O	0.017520	0.057285	-0.053854
	H361	H	0.007201	0.051280	-0.054977
	H362	H	0.020523	0.069411	-0.052579
	O363	O	0.441022	0.465193	0.517058
	H364	H	0.449644	0.473672	0.515674
	H365	H	0.436946	0.476363	0.518794
	O366	O	-0.028046	-0.026819	0.981003
	H367	H	-0.034081	-0.029173	0.980955
	H368	H	-0.030813	-0.027852	0.990094
	O369	O	0.557870	0.523629	0.458668
	H370	H	0.548290	0.523689	0.456168
	H371	H	0.568878	0.524826	0.472077
