data_Molecule from HDF5

_cell_length_a		16.363520
_cell_length_b		16.502313
_cell_length_c		16.369519
_cell_angle_alpha	90.057326
_cell_angle_beta	89.795755
_cell_angle_gamma	90.134667
_symmetry_space_group_name_H-M	'P 1'
_symmetry_Int_Tables_number		1

loop_
	_symmetry_equiv_pos_as_xyz
	x,y,z

loop_
	_atom_site_label
	_atom_site_type_symbol
	_atom_site_fract_x
	_atom_site_fract_y
	_atom_site_fract_z
	H0	H	0.397246	0.845376	0.732503
	H1	H	0.609112	0.162166	0.734402
	H2	H	0.609730	0.846093	0.288492
	H3	H	0.399154	0.161139	0.290106
	H4	H	0.724426	0.400391	0.853550
	H5	H	0.722350	0.609203	0.171010
	H6	H	0.284569	0.608061	0.852935
	H7	H	0.283204	0.400611	0.171062
	H8	H	0.844464	0.726236	0.404367
	H9	H	0.160941	0.726518	0.616396
	H10	H	0.842584	0.282641	0.619389
	H11	H	0.160931	0.284413	0.407122
	H12	H	0.842576	0.400037	0.733833
	H13	H	0.161760	0.608734	0.731492
	H14	H	0.843323	0.608761	0.291210
	H15	H	0.162021	0.402514	0.292430
	H16	H	0.398882	0.724024	0.853420
	H17	H	0.611739	0.727416	0.169061
	H18	H	0.611135	0.282976	0.853101
	H19	H	0.397916	0.282883	0.170469
	H20	H	0.727600	0.847518	0.403941
	H21	H	0.725225	0.162407	0.616725
	H22	H	0.280734	0.845600	0.616668
	H23	H	0.282935	0.162610	0.408388
	H24	H	0.896032	0.346498	0.234538
	H25	H	0.111254	0.661820	0.235713
	H26	H	0.110848	0.347217	0.787592
	H27	H	0.893952	0.658835	0.786911
	H28	H	0.223517	0.899400	0.351731
	H29	H	0.220853	0.107750	0.670647
	H30	H	0.782812	0.111225	0.352827
	H31	H	0.781401	0.900481	0.668174
	H32	H	0.345216	0.224924	0.905740
	H33	H	0.661280	0.226972	0.119271
	H34	H	0.345740	0.778562	0.121262
	H35	H	0.662448	0.785086	0.907792
	H36	H	0.343866	0.896700	0.234329
	H37	H	0.661357	0.109825	0.234033
	H38	H	0.343219	0.105801	0.793890
	H39	H	0.661733	0.900966	0.790689
	H40	H	0.894806	0.227324	0.354246
	H41	H	0.107966	0.226620	0.669490
	H42	H	0.111065	0.781418	0.352861
	H43	H	0.894369	0.781596	0.667608
	H44	H	0.225309	0.345844	0.905885
	H45	H	0.227699	0.661492	0.118863
	H46	H	0.778757	0.347196	0.119760
	H47	H	0.778975	0.660394	0.905886
	H48	H	0.408992	0.118418	0.602853
	H49	H	0.595636	0.892073	0.597056
	H50	H	0.589924	0.114504	0.422642
	H51	H	0.413933	0.892211	0.426481
	H52	H	0.588421	0.413035	0.125610
	H53	H	0.591681	0.586017	0.900246
	H54	H	0.418361	0.588818	0.124205
	H55	H	0.416405	0.408577	0.895303
	H56	H	0.117494	0.591386	0.418370
	H57	H	0.890071	0.595678	0.591526
	H58	H	0.116093	0.411345	0.599201
	H59	H	0.888224	0.414616	0.426770
	H60	H	0.114645	0.415696	0.597107
	H61	H	0.891598	0.584495	0.600464
	H62	H	0.116797	0.597420	0.424618
	H63	H	0.888059	0.416910	0.420654
	H64	H	0.416213	0.595526	0.127338
	H65	H	0.585609	0.595245	0.899431
	H66	H	0.592133	0.413652	0.127156
	H67	H	0.409301	0.414771	0.896043
	H68	H	0.591308	0.115269	0.424148
	H69	H	0.591697	0.890601	0.604138
	H70	H	0.414479	0.116787	0.605102
	H71	H	0.409839	0.889539	0.422649
	H72	H	0.914137	0.613715	0.094283
	H73	H	0.094586	0.392193	0.098521
	H74	H	0.094206	0.616794	0.922985
	H75	H	0.916260	0.391264	0.920729
	H76	H	0.085361	0.912358	0.624142
	H77	H	0.093736	0.096288	0.396404
	H78	H	0.918205	0.096488	0.624867
	H79	H	0.910561	0.905398	0.390730
	H80	H	0.618132	0.100961	0.929197
	H81	H	0.390332	0.087553	0.102114
	H82	H	0.616217	0.918974	0.102571
	H83	H	0.388414	0.915636	0.920380
	H84	H	0.618298	0.910244	0.100121
	H85	H	0.387569	0.096309	0.102663
	H86	H	0.612231	0.084857	0.927065
	H87	H	0.386842	0.909090	0.921456
	H88	H	0.909535	0.093965	0.626880
	H89	H	0.092326	0.091788	0.398219
	H90	H	0.094532	0.911867	0.626522
	H91	H	0.910734	0.928743	0.398927
	H92	H	0.092613	0.616734	0.920931
	H93	H	0.091167	0.391589	0.104161
	H94	H	0.907028	0.619358	0.103347
	H95	H	0.917350	0.394073	0.927106
	H96	H	0.412769	0.116412	0.599087
	H97	H	0.587408	0.894011	0.598183
	H98	H	0.591528	0.115761	0.422532
	H99	H	0.415605	0.891710	0.420762
	H100	H	0.590215	0.415890	0.125773
	H101	H	0.595894	0.595171	0.895238
	H102	H	0.411954	0.590387	0.126219
	H103	H	0.418104	0.416834	0.899782
	H104	H	0.114284	0.589053	0.426388
	H105	H	0.885406	0.596519	0.604592
	H106	H	0.115999	0.415793	0.602400
	H107	H	0.886307	0.411078	0.421800
	H108	H	0.919337	0.616439	0.105520
	H109	H	0.088504	0.394657	0.098662
	H110	H	0.092037	0.615760	0.923410
	H111	H	0.910935	0.391152	0.925660
	H112	H	0.091240	0.919956	0.623317
	H113	H	0.088734	0.095205	0.397017
	H114	H	0.915601	0.087832	0.623043
	H115	H	0.930953	0.915008	0.401840
	H116	H	0.620996	0.093349	0.913629
	H117	H	0.392192	0.093148	0.094577
	H118	H	0.613992	0.915845	0.093632
	H119	H	0.389243	0.912465	0.926701
	C120	C	0.380151	0.012559	0.633715
	C121	C	0.623804	0.996573	0.632209
	C122	C	0.625078	0.012426	0.389155
	C123	C	0.381082	0.995238	0.390740
	C124	C	0.623709	0.382433	0.020949
	C125	C	0.624066	0.624869	1.003073
	C126	C	0.383182	0.624296	0.020847
	C127	C	0.381918	0.381784	1.002283
	C128	C	0.011484	0.625714	0.390013
	C129	C	0.994067	0.625356	0.631921
	C130	C	0.010526	0.382286	0.633101
	C131	C	0.993014	0.382795	0.390823
	C132	C	0.880408	0.512771	0.134310
	C133	C	0.124341	0.496773	0.133092
	C134	C	0.125346	0.512309	0.889593
	C135	C	0.881617	0.495734	0.891845
	C136	C	0.123864	0.882422	0.519559
	C137	C	0.122970	0.125833	0.502510
	C138	C	0.881293	0.125810	0.520528
	C139	C	0.882771	0.883526	0.501424
	C140	C	0.511870	0.124872	0.890785
	C141	C	0.494723	0.125211	0.132899
	C142	C	0.511544	0.881772	0.132829
	C143	C	0.493937	0.881741	0.890981
	C144	C	0.378546	0.893101	0.692751
	C145	C	0.626800	0.114927	0.693652
	C146	C	0.628129	0.893612	0.328467
	C147	C	0.379893	0.113980	0.330169
	C148	C	0.684342	0.381306	0.901087
	C149	C	0.683706	0.627655	0.122730
	C150	C	0.323803	0.626405	0.900681
	C151	C	0.322485	0.380879	0.122876
	C152	C	0.892023	0.686168	0.386745
	C153	C	0.113325	0.686135	0.634869
	C154	C	0.890424	0.322655	0.636866
	C155	C	0.113260	0.324247	0.388743
	C156	C	0.890553	0.380855	0.694030
	C157	C	0.113727	0.627617	0.692045
	C158	C	0.891405	0.627569	0.330337
	C159	C	0.113745	0.382692	0.331434
	C160	C	0.380835	0.683993	0.901085
	C161	C	0.628397	0.686334	0.121924
	C162	C	0.627896	0.322845	0.900950
	C163	C	0.379646	0.322639	0.122633
	C164	C	0.687061	0.894522	0.385626
	C165	C	0.684657	0.115215	0.635071
	C166	C	0.320548	0.893122	0.635044
	C167	C	0.322059	0.114617	0.388752
	C168	C	0.877860	0.393966	0.194612
	C169	C	0.128087	0.614779	0.194575
	C170	C	0.128512	0.394168	0.828166
	C171	C	0.877099	0.612808	0.829164
	C172	C	0.184287	0.880590	0.399983
	C173	C	0.182138	0.127256	0.622545
	C174	C	0.821918	0.128795	0.400769
	C175	C	0.821511	0.881413	0.620694
	C176	C	0.392520	0.184320	0.888347
	C177	C	0.613729	0.186361	0.136675
	C178	C	0.392685	0.819726	0.137751
	C179	C	0.614436	0.824275	0.889044
	C180	C	0.391920	0.878480	0.194381
	C181	C	0.613716	0.128027	0.193967
	C182	C	0.391341	0.125156	0.832525
	C183	C	0.614180	0.881547	0.830877
	C184	C	0.877702	0.186931	0.401511
	C185	C	0.125701	0.185988	0.621966
	C186	C	0.128162	0.821683	0.400433
	C187	C	0.877755	0.822527	0.620408
	C188	C	0.185633	0.393731	0.887399
	C189	C	0.186233	0.614739	0.136305
	C190	C	0.819215	0.394445	0.137547
	C191	C	0.819980	0.613546	0.888231
	C192	C	0.404997	0.095514	0.609397
	C193	C	0.598505	0.913842	0.606991
	C194	C	0.598666	0.093969	0.415587
	C195	C	0.405854	0.912774	0.416106
	C196	C	0.597775	0.406992	0.104415
	C197	C	0.598622	0.599338	0.919973
	C198	C	0.408212	0.598917	0.104168
	C199	C	0.407109	0.406134	0.918820
	C200	C	0.094534	0.600101	0.415776
	C201	C	0.910794	0.599684	0.606266
	C202	C	0.093845	0.407190	0.607028
	C203	C	0.909409	0.407106	0.415871
	C204	C	0.906311	0.595035	0.108506
	C205	C	0.098647	0.414334	0.107710
	C206	C	0.099946	0.595110	0.915113
	C207	C	0.907485	0.413457	0.917350
	C208	C	0.097760	0.907435	0.603040
	C209	C	0.098641	0.101522	0.418925
	C210	C	0.906980	0.100172	0.603500
	C211	C	0.909689	0.909075	0.418680
	C212	C	0.595424	0.100228	0.915946
	C213	C	0.411585	0.099446	0.107257
	C214	C	0.594415	0.907658	0.106453
	C215	C	0.409970	0.905557	0.915786
	Zn216	Zn	0.502423	0.003362	0.762328
	Zn217	Zn	0.503060	0.003002	0.260931
	Zn218	Zn	0.751041	0.504256	0.012537
	Zn219	Zn	0.254762	0.504471	0.012077
	Zn220	Zn	0.002669	0.753966	0.510523
	Zn221	Zn	0.001175	0.253917	0.511824
	Zn222	Zn	0.002452	0.504026	0.760729
	Zn223	Zn	0.002282	0.504345	0.262715
	Zn224	Zn	0.503520	0.752693	0.011994
	Zn225	Zn	0.503546	0.253637	0.011411
	Zn226	Zn	0.754189	0.005315	0.510498
	Zn227	Zn	0.251336	0.003778	0.511924
	N228	N	0.414928	0.968325	0.692119
	N229	N	0.589709	0.040194	0.692026
	N230	N	0.590380	0.967833	0.330466
	N231	N	0.415456	0.038707	0.330840
	N232	N	0.682046	0.417406	0.976722
	N233	N	0.680971	0.589974	0.047943
	N234	N	0.325102	0.590129	0.976209
	N235	N	0.323553	0.416763	0.047117
	N236	N	0.967630	0.685089	0.422882
	N237	N	0.037757	0.684971	0.598461
	N238	N	0.966102	0.323286	0.599872
	N239	N	0.037143	0.323881	0.424534
	N240	N	0.966297	0.416915	0.692040
	N241	N	0.038382	0.590630	0.690398
	N242	N	0.966936	0.591054	0.331960
	N243	N	0.038008	0.418235	0.332613
	N244	N	0.416884	0.682935	0.976810
	N245	N	0.592088	0.685008	0.046463
	N246	N	0.591120	0.323332	0.976603
	N247	N	0.415628	0.322964	0.046561
	N248	N	0.685304	0.969272	0.422588
	N249	N	0.682785	0.040673	0.597355
	N250	N	0.321272	0.968371	0.599003
	N251	N	0.322464	0.039736	0.425340
	N252	N	0.915306	0.468506	0.192812
	N253	N	0.090018	0.540537	0.192469
	N254	N	0.091739	0.468977	0.829382
	N255	N	0.914840	0.538719	0.831396
	N256	N	0.181636	0.917591	0.475202
	N257	N	0.180709	0.090471	0.547305
	N258	N	0.824019	0.091447	0.475744
	N259	N	0.824359	0.918612	0.545682
	N260	N	0.468562	0.184556	0.923540
	N261	N	0.538689	0.184664	0.099457
	N262	N	0.467951	0.821707	0.100211
	N263	N	0.538747	0.824427	0.925598
	N264	N	0.466668	0.916491	0.191416
	N265	N	0.538506	0.090599	0.191805
	N266	N	0.466849	0.088988	0.833771
	N267	N	0.538054	0.916592	0.831805
	N268	N	0.913722	0.185377	0.477045
	N269	N	0.089718	0.185320	0.546230
	N270	N	0.091333	0.822758	0.475979
	N271	N	0.915153	0.823715	0.545217
	N272	N	0.183768	0.468333	0.924982
	N273	N	0.183999	0.540342	0.098809
	N274	N	0.820127	0.469369	0.101060
	N275	N	0.822730	0.539621	0.926580
	O276	O	0.708198	0.297461	0.485182
	H277	H	0.723676	0.283331	0.485958
	H278	H	0.710526	0.308670	0.461330
	O279	O	1.026104	0.203971	0.970548
	H280	H	1.027081	0.199578	0.963750
	H281	H	1.032617	0.198632	0.996655
	O282	O	0.346628	0.664781	0.358468
	H283	H	0.365477	0.655069	0.356375
	H284	H	0.335014	0.674445	0.398417
	O285	O	0.488937	0.708599	0.302183
	H286	H	0.481815	0.718894	0.320157
	H287	H	0.474115	0.724151	0.286277
	O288	O	0.882391	0.950790	-0.078046
	H289	H	0.880279	0.977001	-0.098297
	H290	H	0.878017	0.952281	-0.058206
	O291	O	0.620061	0.317772	0.606869
	H292	H	0.611831	0.327850	0.622482
	H293	H	0.643945	0.316999	0.600471
	O294	O	-0.018665	-0.210255	1.223721
	H295	H	-0.022846	-0.225261	1.217121
	H296	H	-0.034731	-0.229227	1.236523
	O297	O	0.456356	0.295351	0.720967
	H298	H	0.450001	0.291425	0.728439
	H299	H	0.454408	0.285639	0.726757
	O300	O	0.657503	0.586397	0.381509
	H301	H	0.639873	0.581311	0.380756
	H302	H	0.674453	0.581802	0.390442
	O303	O	0.330257	0.604984	0.493139
	H304	H	0.336108	0.611457	0.499519
	H305	H	0.326038	0.614987	0.513692
	O306	O	0.496268	0.551410	0.539344
	H307	H	0.485089	0.539092	0.521767
	H308	H	0.489753	0.554225	0.554275
	O309	O	0.866639	-0.001410	0.009279
	H310	H	0.863550	-0.004148	-0.001353
	H311	H	0.857578	0.001905	-0.005863
	O312	O	0.025166	0.788356	0.797969
	H313	H	0.030886	0.774951	0.782204
	H314	H	0.036457	0.794750	0.791843
	O315	O	0.486510	0.298591	0.519332
	H316	H	0.497205	0.287361	0.523752
	H317	H	0.491897	0.309981	0.531141
	O318	O	1.013184	0.026808	0.161086
	H319	H	1.000350	0.007450	0.165340
	H320	H	0.995778	0.016577	0.165001
	O321	O	-0.021175	0.214856	-0.196757
	H322	H	-0.010571	0.230204	-0.182329
	H323	H	-0.035113	0.227903	-0.212019
	O324	O	0.335747	0.480426	0.320842
	H325	H	0.346700	0.491188	0.299339
	H326	H	0.349128	0.498339	0.337614
	O327	O	0.545074	0.578300	0.673909
	H328	H	0.553009	0.579464	0.661467
	H329	H	0.568372	0.601125	0.695874
	O330	O	0.221572	0.974150	0.116860
	H331	H	0.226919	0.980422	0.111169
	H332	H	0.211740	0.969008	0.121617
	O333	O	0.481364	0.523879	0.696507
	H334	H	0.477584	0.527437	0.692973
	H335	H	0.482440	0.527988	0.698812
	O336	O	0.197026	0.195380	0.205134
	H337	H	0.217892	0.193696	0.229737
	H338	H	0.206329	0.162539	0.192727
	O339	O	0.033750	0.983676	-0.143531
	H340	H	0.002215	0.994175	-0.143959
	H341	H	0.044721	0.971453	-0.138190
	O342	O	-0.057494	1.068882	1.029335
	H343	H	-0.056045	1.059976	1.063152
	H344	H	-0.060523	1.050675	1.007862
	O345	O	0.804914	0.800057	0.030856
	H346	H	0.808887	0.779223	0.026677
	H347	H	0.806432	0.806634	0.023487
	O348	O	0.525266	0.486212	0.357332
	H349	H	0.522288	0.492548	0.338174
	H350	H	0.518339	0.483555	0.378463
	O351	O	0.155344	1.001841	0.846836
	H352	H	0.166776	1.023294	0.847244
	H353	H	0.153922	1.001237	0.845086
	O354	O	0.167861	0.981833	0.197319
	H355	H	0.165074	0.978836	0.204926
	H356	H	0.161518	0.958707	0.204006
	O357	O	0.208047	-0.204811	0.988793
	H358	H	0.200208	-0.182798	1.003623
	H359	H	0.229829	-0.231042	0.983710
	O360	O	0.581963	0.517571	0.545709
	H361	H	0.584220	0.507042	0.550083
	H362	H	0.560732	0.507309	0.548712
	O363	O	0.181309	-0.178764	0.830732
	H364	H	0.168708	-0.149933	0.828798
	H365	H	0.187033	-0.176741	0.856468
	O366	O	0.368869	0.341351	0.384167
	H367	H	0.384728	0.362696	0.398331
	H368	H	0.378509	0.345803	0.399337
	O369	O	0.558216	0.417937	0.578283
	H370	H	0.545103	0.407103	0.565422
	H371	H	0.547026	0.427585	0.572726
	O372	O	0.804115	0.015674	0.806109
	H373	H	0.803137	0.032435	0.794481
	H374	H	0.799969	0.041465	0.803702
	O375	O	0.337550	0.349238	0.505782
	H376	H	0.332413	0.343678	0.496615
	H377	H	0.351320	0.363422	0.516659
	O378	O	0.681219	0.702277	0.707650
	H379	H	0.700688	0.726651	0.731453
	H380	H	0.688713	0.688518	0.689549
	O381	O	0.296554	0.322478	0.652192
	H382	H	0.297790	0.306270	0.640994
	H383	H	0.284111	0.311758	0.659989
	O384	O	0.619026	0.338524	0.323750
	H385	H	0.630250	0.362766	0.310879
	H386	H	0.603251	0.334509	0.321467
	O387	O	0.154888	0.016340	0.824405
	H388	H	0.148087	0.028415	0.823500
	H389	H	0.161537	0.015713	0.821227
	O390	O	-0.100373	0.065379	0.186918
	H391	H	-0.100133	0.060575	0.184910
	H392	H	-0.096953	0.085506	0.193142
	O393	O	1.126008	1.167777	0.870704
	H394	H	1.128261	1.156609	0.890056
	H395	H	1.120857	1.165536	0.883082
	O396	O	0.809663	-0.151786	-0.133982
	H397	H	0.824901	-0.125039	-0.124125
	H398	H	0.820208	-0.143732	-0.117905
	O399	O	0.818165	0.177649	0.823325
	H400	H	0.842539	0.196721	0.824572
	H401	H	0.806200	0.184212	0.859344
	O402	O	1.214993	1.222322	1.040155
	H403	H	1.242336	1.253154	1.042613
	H404	H	1.201849	1.220497	1.063047
	O405	O	0.965140	0.778512	-0.032176
	H406	H	0.976098	0.792436	-0.042694
	H407	H	0.979813	0.763447	-0.037572
	O408	O	0.818056	-0.181754	0.198045
	H409	H	0.810836	-0.164480	0.177102
	H410	H	0.821634	-0.186878	0.197128
	O411	O	1.027883	1.227239	0.228194
	H412	H	1.052541	1.244372	0.248927
	H413	H	1.056224	1.223782	0.237330
	O414	O	0.444961	0.626258	0.545387
	H415	H	0.453191	0.629292	0.553911
	H416	H	0.428319	0.644616	0.553637
	O417	O	0.355799	0.509290	0.506811
	H418	H	0.366484	0.502767	0.522912
	H419	H	0.351383	0.506649	0.486449
	O420	O	0.088391	-0.178309	0.124467
	H421	H	0.071817	-0.178298	0.126254
	H422	H	0.090542	-0.180557	0.108201
	O423	O	0.519972	0.522506	0.617677
	H424	H	0.514494	0.523921	0.645018
	H425	H	0.503770	0.505398	0.606086
	O426	O	0.523116	0.697271	0.723396
	H427	H	0.540233	0.699218	0.738465
	H428	H	0.548583	0.702013	0.734919
	O429	O	-0.132870	1.118558	0.140748
	H430	H	-0.120942	1.113983	0.131731
	H431	H	-0.117642	1.112826	0.143833
	O432	O	0.668852	0.556228	0.314182
	H433	H	0.655915	0.562408	0.314830
	H434	H	0.658771	0.576364	0.310619
	O435	O	0.489241	0.720169	0.464375
	H436	H	0.500531	0.717216	0.469474
	H437	H	0.488267	0.726056	0.470392
	O438	O	-0.206673	0.217082	-0.018318
	H439	H	-0.224353	0.235101	-0.004812
	H440	H	-0.197405	0.217840	0.006065
	O441	O	1.140732	0.044943	0.050631
	H442	H	1.139815	0.031695	0.065925
	H443	H	1.136002	0.061267	0.067818
	O444	O	-0.147049	0.992624	1.162252
	H445	H	-0.140081	0.978921	1.162540
	H446	H	-0.153662	0.991480	1.189374
	O447	O	0.329498	0.501305	0.718538
	H448	H	0.308067	0.484065	0.733218
	H449	H	0.327977	0.490819	0.714158
	O450	O	0.700240	0.715654	0.533313
	H451	H	0.708676	0.705869	0.535709
	H452	H	0.710769	0.724923	0.543914
	O453	O	0.571645	0.299380	0.307424
	H454	H	0.565684	0.289867	0.302049
	H455	H	0.567111	0.291165	0.313310
