data_Molecule from HDF5

_cell_length_a		16.047385
_cell_length_b		16.099574
_cell_length_c		16.360840
_cell_angle_alpha	90.107185
_cell_angle_beta	90.265451
_cell_angle_gamma	90.005550
_symmetry_space_group_name_H-M	'P 1'
_symmetry_Int_Tables_number		1

loop_
	_symmetry_equiv_pos_as_xyz
	x,y,z

loop_
	_atom_site_label
	_atom_site_type_symbol
	_atom_site_fract_x
	_atom_site_fract_y
	_atom_site_fract_z
	H0	H	0.410897	0.839873	0.711866
	H1	H	0.614953	0.168735	0.717010
	H2	H	0.613914	0.840819	0.282154
	H3	H	0.408097	0.168777	0.281231
	H4	H	0.720905	0.405730	0.833122
	H5	H	0.724643	0.602101	0.160416
	H6	H	0.294008	0.602455	0.832457
	H7	H	0.295585	0.406509	0.160621
	H8	H	0.843989	0.718712	0.400186
	H9	H	0.177796	0.716733	0.593251
	H10	H	0.844248	0.293596	0.590961
	H11	H	0.177776	0.296353	0.399644
	H12	H	0.843442	0.407829	0.706750
	H13	H	0.173858	0.609766	0.715106
	H14	H	0.843272	0.606581	0.281971
	H15	H	0.174317	0.404865	0.280649
	H16	H	0.409952	0.719299	0.833115
	H17	H	0.608496	0.718211	0.161063
	H18	H	0.607348	0.288301	0.834731
	H19	H	0.411361	0.291017	0.160730
	H20	H	0.721772	0.838695	0.403707
	H21	H	0.721722	0.172357	0.594054
	H22	H	0.300305	0.839143	0.592427
	H23	H	0.300870	0.171224	0.401206
	H24	H	0.906561	0.340630	0.212087
	H25	H	0.110461	0.670079	0.212417
	H26	H	0.108395	0.340820	0.779774
	H27	H	0.905703	0.670795	0.780757
	H28	H	0.225877	0.908055	0.333352
	H29	H	0.227997	0.106673	0.660306
	H30	H	0.795297	0.103737	0.333538
	H31	H	0.800814	0.910058	0.661849
	H32	H	0.343925	0.214002	0.901929
	H33	H	0.675873	0.217620	0.096621
	H34	H	0.343047	0.794131	0.092820
	H35	H	0.677440	0.793552	0.903344
	H36	H	0.346218	0.902255	0.213498
	H37	H	0.675664	0.105546	0.213617
	H38	H	0.346785	0.104741	0.781598
	H39	H	0.677261	0.903362	0.784901
	H40	H	0.914598	0.218048	0.332079
	H41	H	0.111483	0.222539	0.660051
	H42	H	0.110278	0.790997	0.333521
	H43	H	0.913817	0.792067	0.660053
	H44	H	0.217936	0.337545	0.900679
	H45	H	0.221801	0.670891	0.092808
	H46	H	0.801391	0.336705	0.087924
	H47	H	0.795816	0.671173	0.900196
	H48	H	0.425279	0.121878	0.590628
	H49	H	0.595808	0.890682	0.586129
	H50	H	0.607235	0.124896	0.408099
	H51	H	0.412018	0.883259	0.403890
	H52	H	0.604335	0.403115	0.115681
	H53	H	0.601125	0.596286	0.881185
	H54	H	0.411358	0.600185	0.114609
	H55	H	0.412570	0.406211	0.878059
	H56	H	0.130093	0.602809	0.404202
	H57	H	0.886942	0.615116	0.590119
	H58	H	0.129153	0.407957	0.581401
	H59	H	0.889671	0.402721	0.408045
	H60	H	0.125798	0.427119	0.589169
	H61	H	0.896548	0.594109	0.575368
	H62	H	0.126970	0.592858	0.404445
	H63	H	0.893480	0.421770	0.406510
	H64	H	0.417373	0.594160	0.111046
	H65	H	0.600988	0.601989	0.880059
	H66	H	0.611520	0.414958	0.115055
	H67	H	0.413546	0.411637	0.881114
	H68	H	0.601834	0.125269	0.397667
	H69	H	0.617899	0.884050	0.586741
	H70	H	0.418740	0.123458	0.589189
	H71	H	0.423555	0.885841	0.397708
	H72	H	0.911794	0.625933	0.094671
	H73	H	0.101395	0.388351	0.083398
	H74	H	0.111806	0.624835	0.911200
	H75	H	0.924229	0.390134	0.905180
	H76	H	0.109546	0.903696	0.617179
	H77	H	0.101940	0.095911	0.383153
	H78	H	0.904340	0.098582	0.616548
	H79	H	0.914133	0.916320	0.380845
	H80	H	0.631739	0.097237	0.902531
	H81	H	0.391981	0.088945	0.096867
	H82	H	0.632530	0.901879	0.092842
	H83	H	0.389313	0.899873	0.906971
	H84	H	0.626250	0.914870	0.083847
	H85	H	0.387706	0.103790	0.095059
	H86	H	0.630067	0.098714	0.908206
	H87	H	0.396697	0.921452	0.910271
	H88	H	0.926331	0.092302	0.608779
	H89	H	0.104447	0.107333	0.379127
	H90	H	0.111763	0.920182	0.612533
	H91	H	0.921731	0.911038	0.381383
	H92	H	0.099836	0.627040	0.891388
	H93	H	0.107664	0.383414	0.094888
	H94	H	0.925396	0.622518	0.093592
	H95	H	0.905645	0.384432	0.902950
	H96	H	0.421063	0.124651	0.595472
	H97	H	0.604094	0.882824	0.606166
	H98	H	0.595857	0.121153	0.406994
	H99	H	0.422301	0.888697	0.410211
	H100	H	0.598024	0.414906	0.111088
	H101	H	0.605741	0.598347	0.880036
	H102	H	0.419112	0.602690	0.113102
	H103	H	0.417292	0.407929	0.881283
	H104	H	0.129965	0.596913	0.396349
	H105	H	0.889494	0.590134	0.601655
	H106	H	0.132026	0.412024	0.601310
	H107	H	0.887958	0.412037	0.392526
	H108	H	0.916754	0.621009	0.081294
	H109	H	0.093420	0.386906	0.094839
	H110	H	0.088999	0.617723	0.910271
	H111	H	0.917876	0.383927	0.887845
	H112	H	0.096866	0.913102	0.610244
	H113	H	0.112366	0.099079	0.378342
	H114	H	0.921928	0.113690	0.616070
	H115	H	0.914832	0.907844	0.378171
	H116	H	0.628907	0.092586	0.907332
	H117	H	0.393428	0.096460	0.084115
	H118	H	0.630135	0.917454	0.100457
	H119	H	0.389256	0.915120	0.889327
	C120	C	0.392248	0.013909	0.618654
	C121	C	0.634209	0.995819	0.620813
	C122	C	0.631479	0.014223	0.376476
	C123	C	0.390202	0.995603	0.375614
	C124	C	0.632207	0.381851	0.006173
	C125	C	0.631917	0.626952	0.988538
	C126	C	0.387284	0.626801	0.004526
	C127	C	0.386602	0.381104	0.988348
	C128	C	0.018789	0.626935	0.374087
	C129	C	1.000888	0.628004	0.618198
	C130	C	0.018929	0.386146	0.617144
	C131	C	1.000899	0.384448	0.374563
	C132	C	0.888804	0.513363	0.117094
	C133	C	0.130079	0.495880	0.118556
	C134	C	0.129347	0.513850	0.874936
	C135	C	0.886698	0.496023	0.872485
	C136	C	0.134107	0.883883	0.505303
	C137	C	0.134824	0.129580	0.488471
	C138	C	0.889144	0.128965	0.505088
	C139	C	0.889549	0.883994	0.488624
	C140	C	0.520239	0.124803	0.877207
	C141	C	0.501198	0.125387	0.120091
	C142	C	0.519639	0.882602	0.120025
	C143	C	0.501981	0.883670	0.875963
	C144	C	0.392145	0.889072	0.673352
	C145	C	0.633499	0.120084	0.677541
	C146	C	0.631885	0.889652	0.321244
	C147	C	0.390428	0.119840	0.320122
	C148	C	0.684945	0.384473	0.882368
	C149	C	0.687197	0.623322	0.111457
	C150	C	0.331923	0.623164	0.881549
	C151	C	0.332885	0.385448	0.111565
	C152	C	0.893591	0.681757	0.378483
	C153	C	0.127055	0.681089	0.614904
	C154	C	0.893964	0.330724	0.612464
	C155	C	0.127076	0.331747	0.378198
	C156	C	0.893485	0.387570	0.669854
	C157	C	0.125187	0.627778	0.675418
	C158	C	0.893196	0.625697	0.320053
	C159	C	0.125328	0.385737	0.318941
	C160	C	0.389825	0.681333	0.881877
	C161	C	0.629433	0.681312	0.111830
	C162	C	0.628160	0.326406	0.883243
	C163	C	0.390456	0.327868	0.111751
	C164	C	0.686054	0.888935	0.381327
	C165	C	0.686575	0.121954	0.616417
	C166	C	0.336723	0.888922	0.614324
	C167	C	0.336626	0.120930	0.379514
	C168	C	0.888739	0.389270	0.172626
	C169	C	0.129453	0.620742	0.173929
	C170	C	0.127871	0.389565	0.818799
	C171	C	0.887388	0.621342	0.818848
	C172	C	0.188045	0.887508	0.382109
	C173	C	0.189719	0.126492	0.611513
	C174	C	0.833655	0.124927	0.382201
	C175	C	0.836964	0.888404	0.612305
	C176	C	0.394444	0.178284	0.880237
	C177	C	0.626106	0.180446	0.117231
	C178	C	0.393651	0.829422	0.115034
	C179	C	0.627710	0.829594	0.881330
	C180	C	0.395026	0.883763	0.174912
	C181	C	0.626058	0.124467	0.175355
	C182	C	0.395908	0.123761	0.820526
	C183	C	0.627604	0.884161	0.822464
	C184	C	0.892936	0.181592	0.381405
	C185	C	0.131649	0.184134	0.611381
	C186	C	0.130957	0.829177	0.382219
	C187	C	0.893403	0.829786	0.611486
	C188	C	0.182208	0.387978	0.879043
	C189	C	0.185152	0.621024	0.114700
	C190	C	0.836326	0.387423	0.110923
	C191	C	0.832520	0.621448	0.878008
	C192	C	0.414970	0.100772	0.598039
	C193	C	0.612488	0.908499	0.599382
	C194	C	0.608543	0.101365	0.397907
	C195	C	0.412917	0.908324	0.397261
	C196	C	0.611198	0.404230	0.091780
	C197	C	0.609272	0.605318	0.902695
	C198	C	0.409353	0.605234	0.090737
	C199	C	0.408063	0.402290	0.902251
	C200	C	0.106299	0.604282	0.395424
	C201	C	0.913579	0.606087	0.595707
	C202	C	0.106338	0.409035	0.596471
	C203	C	0.913173	0.406022	0.395772
	C204	C	0.911349	0.600642	0.096090
	C205	C	0.107532	0.408694	0.097308
	C206	C	0.106750	0.600759	0.897504
	C207	C	0.909054	0.408775	0.892655
	C208	C	0.112547	0.905900	0.591100
	C209	C	0.112720	0.107372	0.402460
	C210	C	0.911059	0.107984	0.591384
	C211	C	0.910620	0.905447	0.402365
	C212	C	0.607802	0.102734	0.899359
	C213	C	0.413632	0.103158	0.098399
	C214	C	0.607139	0.904902	0.098811
	C215	C	0.414367	0.905784	0.896141
	Zn216	Zn	0.512465	0.004224	0.748232
	Zn217	Zn	0.510552	0.004401	0.248086
	Zn218	Zn	0.760829	0.504291	-0.004152
	Zn219	Zn	0.258015	0.503629	-0.003466
	Zn220	Zn	0.011507	0.754329	0.496404
	Zn221	Zn	0.011943	0.258071	0.496165
	Zn222	Zn	0.008994	0.506803	0.745714
	Zn223	Zn	0.008383	0.505082	0.246770
	Zn224	Zn	0.509963	0.756904	-0.002742
	Zn225	Zn	0.509799	0.252738	-0.001585
	Zn226	Zn	0.760011	0.005922	0.497523
	Zn227	Zn	0.263802	0.005847	0.497144
	N228	N	0.426099	0.967617	0.676214
	N229	N	0.601426	0.040748	0.680256
	N230	N	0.598682	0.968500	0.318145
	N231	N	0.423149	0.040717	0.317689
	N232	N	0.687390	0.418441	0.959514
	N233	N	0.689080	0.590444	0.033758
	N234	N	0.330309	0.590056	0.958821
	N235	N	0.330271	0.417582	0.033721
	N236	N	0.972636	0.682386	0.411496
	N237	N	0.048707	0.681564	0.580114
	N238	N	0.973116	0.329796	0.580312
	N239	N	0.048682	0.330861	0.412350
	N240	N	0.972108	0.421463	0.672768
	N241	N	0.045716	0.595700	0.677680
	N242	N	0.972271	0.592538	0.317006
	N243	N	0.045801	0.417711	0.316457
	N244	N	0.423542	0.683715	0.959556
	N245	N	0.595669	0.683493	0.034360
	N246	N	0.596135	0.324397	0.961218
	N247	N	0.423132	0.324936	0.034081
	N248	N	0.685878	0.967348	0.415020
	N249	N	0.687160	0.043946	0.581811
	N250	N	0.336426	0.967464	0.581128
	N251	N	0.336292	0.042743	0.413369
	N252	N	0.920562	0.468595	0.176559
	N253	N	0.095826	0.542074	0.176313
	N254	N	0.095899	0.468930	0.816085
	N255	N	0.920246	0.542287	0.815025
	N256	N	0.190266	0.920754	0.459646
	N257	N	0.191958	0.093286	0.533915
	N258	N	0.831189	0.093096	0.460098
	N259	N	0.834491	0.921349	0.534815
	N260	N	0.472667	0.178775	0.915035
	N261	N	0.547508	0.180927	0.083431
	N262	N	0.472243	0.828579	0.081690
	N263	N	0.548714	0.828962	0.913883
	N264	N	0.474449	0.916030	0.177983
	N265	N	0.547079	0.090970	0.177352
	N266	N	0.475187	0.091275	0.818567
	N267	N	0.548439	0.917056	0.819097
	N268	N	0.926791	0.184174	0.458937
	N269	N	0.098543	0.186223	0.533661
	N270	N	0.097988	0.826669	0.459813
	N271	N	0.925260	0.826795	0.533424
	N272	N	0.183380	0.466276	0.913124
	N273	N	0.185553	0.542469	0.080874
	N274	N	0.835925	0.465743	0.077184
	N275	N	0.831620	0.542673	0.910425
	O276	O	0.032948	0.046860	0.022724
	H277	H	0.036455	0.052806	0.035201
	H278	H	0.018849	0.045665	0.022679
	O279	O	0.518920	0.493904	0.598755
	H280	H	0.515261	0.499797	0.609072
	H281	H	0.512877	0.494649	0.594451
	O282	O	0.533121	0.498301	0.478431
	H283	H	0.538220	0.492022	0.476032
	H284	H	0.533733	0.486263	0.470169
	O285	O	0.953192	-0.026889	1.027055
	H286	H	0.952111	-0.021881	1.032542
	H287	H	0.943613	-0.033202	1.029869
	O288	O	1.017901	0.037134	0.024720
	H289	H	1.029444	0.029408	0.032830
	H290	H	1.014315	0.045629	0.016073
	O291	O	0.475399	0.524371	0.451382
	H292	H	0.477085	0.520341	0.445588
	H293	H	0.475561	0.531373	0.451261
	O294	O	0.954014	0.023721	1.050939
	H295	H	0.953471	0.021432	1.049423
	H296	H	0.955983	0.018461	1.052950
	O297	O	0.128875	-0.076129	-0.006795
	H298	H	0.140647	-0.082041	-0.002707
	H299	H	0.128339	-0.063078	-0.010690
	O300	O	0.505367	0.516336	0.569255
	H301	H	0.513666	0.515802	0.566372
	H302	H	0.512376	0.514591	0.572621
	O303	O	-0.038730	-0.007256	0.038312
	H304	H	-0.046847	-0.005952	0.041839
	H305	H	-0.034118	-0.019962	0.029772
	O306	O	1.012315	0.007396	-0.005374
	H307	H	1.013493	0.009447	-0.008773
	H308	H	1.019317	0.007243	-0.006158
	O309	O	0.056340	-0.040189	0.975019
	H310	H	0.052690	-0.035560	0.959992
	H311	H	0.059673	-0.045115	0.980623
	O312	O	1.078036	1.009781	0.913472
	H313	H	1.072363	1.018352	0.921902
	H314	H	1.070156	1.007159	0.915158
	O315	O	0.590678	0.548291	0.425229
	H316	H	0.593078	0.556633	0.425495
	H317	H	0.579344	0.546688	0.432833
	O318	O	0.572154	0.493527	0.567397
	H319	H	0.581427	0.500128	0.564825
	H320	H	0.573969	0.509661	0.565989
	O321	O	0.002616	0.906925	0.920503
	H322	H	0.014966	0.904402	0.923921
	H323	H	0.008216	0.901288	0.914809
	O324	O	0.495739	0.551708	0.533342
	H325	H	0.502462	0.567334	0.542823
	H326	H	0.492335	0.555519	0.528832
	O327	O	0.541410	0.518720	0.426355
	H328	H	0.541074	0.526029	0.418802
	H329	H	0.540566	0.519738	0.425644
	O330	O	0.468077	0.535713	0.567981
	H331	H	0.459821	0.537526	0.570161
	H332	H	0.460950	0.533805	0.567016
	O333	O	0.522991	0.526959	0.413581
	H334	H	0.526470	0.520868	0.415686
	H335	H	0.518631	0.537620	0.408789
	O336	O	0.483223	0.480355	0.521400
	H337	H	0.480746	0.466228	0.524550
	H338	H	0.482233	0.486107	0.518326
	O339	O	1.019952	1.021748	0.072386
	H340	H	1.020207	1.018839	0.060267
	H341	H	1.034658	1.020074	0.083529
	O342	O	0.483257	0.542802	0.490984
	H343	H	0.485780	0.536055	0.490251
	H344	H	0.484219	0.547151	0.484854
	O345	O	0.426359	0.534704	0.458330
	H346	H	0.422210	0.533366	0.466420
	H347	H	0.418785	0.529947	0.455070
	O348	O	0.071207	0.029705	0.013869
	H349	H	0.061595	0.029412	0.011199
	H350	H	0.064474	0.029727	0.014486
	O351	O	-0.595174	1.461827	1.504083
	H352	H	-0.603075	1.458181	1.513309
	H353	H	-0.591254	1.456389	1.503152
	O354	O	0.461282	0.425772	0.404313
	H355	H	0.470792	0.416144	0.398908
	H356	H	0.466392	0.420444	0.408325
	O357	O	-0.002258	0.949329	0.953585
	H358	H	-0.009588	0.951444	0.952229
	H359	H	0.004030	0.950497	0.949157
