data_Molecule from HDF5

_cell_length_a		16.256984
_cell_length_b		16.472384
_cell_length_c		16.277315
_cell_angle_alpha	90.056724
_cell_angle_beta	90.119827
_cell_angle_gamma	89.982934
_symmetry_space_group_name_H-M	'P 1'
_symmetry_Int_Tables_number		1

loop_
	_symmetry_equiv_pos_as_xyz
	x,y,z

loop_
	_atom_site_label
	_atom_site_type_symbol
	_atom_site_fract_x
	_atom_site_fract_y
	_atom_site_fract_z
	H0	H	0.387276	0.847974	0.705897
	H1	H	0.590289	0.167655	0.708723
	H2	H	0.591761	0.847750	0.270085
	H3	H	0.382552	0.167454	0.266579
	H4	H	0.702866	0.409497	0.826692
	H5	H	0.706328	0.612603	0.148882
	H6	H	0.269857	0.610308	0.824932
	H7	H	0.269033	0.407140	0.149106
	H8	H	0.824916	0.728458	0.385264
	H9	H	0.147205	0.730849	0.594890
	H10	H	0.826372	0.292041	0.588677
	H11	H	0.148151	0.288039	0.380299
	H12	H	0.825398	0.410109	0.701589
	H13	H	0.148810	0.611215	0.705499
	H14	H	0.824939	0.611242	0.269739
	H15	H	0.150409	0.409527	0.270615
	H16	H	0.383977	0.727337	0.825479
	H17	H	0.594805	0.730296	0.146996
	H18	H	0.592827	0.289026	0.828983
	H19	H	0.380793	0.286746	0.148392
	H20	H	0.706455	0.848087	0.388661
	H21	H	0.704126	0.169302	0.591960
	H22	H	0.269012	0.849066	0.591891
	H23	H	0.267834	0.168898	0.385271
	H24	H	0.882957	0.351455	0.207729
	H25	H	0.093078	0.667753	0.209169
	H26	H	0.090334	0.349445	0.766391
	H27	H	0.880870	0.667721	0.765146
	H28	H	0.208318	0.903684	0.330073
	H29	H	0.205494	0.112656	0.650349
	H30	H	0.768098	0.111289	0.327856
	H31	H	0.773222	0.912132	0.652696
	H32	H	0.328552	0.229987	0.881403
	H33	H	0.648478	0.229996	0.095743
	H34	H	0.328813	0.788449	0.091420
	H35	H	0.649180	0.787409	0.880062
	H36	H	0.328647	0.903456	0.207756
	H37	H	0.649676	0.112668	0.208938
	H38	H	0.326960	0.108497	0.771606
	H39	H	0.651580	0.909270	0.772431
	H40	H	0.883441	0.227058	0.326889
	H41	H	0.092215	0.230568	0.648139
	H42	H	0.093573	0.786938	0.330843
	H43	H	0.879555	0.788865	0.649327
	H44	H	0.210201	0.350321	0.879602
	H45	H	0.210101	0.667311	0.092583
	H46	H	0.770199	0.350213	0.088776
	H47	H	0.765491	0.668095	0.881513
	H48	H	0.389819	0.125958	0.581632
	H49	H	0.580280	0.890252	0.592313
	H50	H	0.577836	0.121991	0.397087
	H51	H	0.404721	0.895197	0.388874
	H52	H	0.573114	0.417209	0.103304
	H53	H	0.582367	0.589854	0.873056
	H54	H	0.395276	0.597721	0.101809
	H55	H	0.399548	0.421982	0.875500
	H56	H	0.101139	0.604424	0.403418
	H57	H	0.866890	0.610075	0.581678
	H58	H	0.101728	0.423303	0.575060
	H59	H	0.872972	0.419472	0.397179
	H60	H	0.104351	0.417533	0.579961
	H61	H	0.875255	0.601008	0.565636
	H62	H	0.098638	0.595799	0.404457
	H63	H	0.872376	0.417552	0.396065
	H64	H	0.402613	0.595700	0.098725
	H65	H	0.566276	0.599196	0.875680
	H66	H	0.581167	0.414764	0.107175
	H67	H	0.403998	0.415155	0.874002
	H68	H	0.577192	0.121820	0.397773
	H69	H	0.571482	0.898728	0.575727
	H70	H	0.402995	0.122859	0.586489
	H71	H	0.404652	0.901600	0.408807
	H72	H	0.900052	0.622681	0.077066
	H73	H	0.074956	0.398627	0.072414
	H74	H	0.080109	0.623441	0.896244
	H75	H	0.903747	0.397818	0.895960
	H76	H	0.080388	0.923659	0.604080
	H77	H	0.071762	0.106285	0.373226
	H78	H	0.894722	0.106389	0.606410
	H79	H	0.896877	0.925385	0.376239
	H80	H	0.604280	0.097925	0.897732
	H81	H	0.374925	0.092198	0.081529
	H82	H	0.604120	0.919304	0.078268
	H83	H	0.373714	0.913295	0.900285
	H84	H	0.604486	0.917231	0.076665
	H85	H	0.371435	0.104686	0.077608
	H86	H	0.605555	0.102873	0.899455
	H87	H	0.374475	0.920537	0.899842
	H88	H	0.896434	0.099853	0.604251
	H89	H	0.084325	0.098107	0.371155
	H90	H	0.071276	0.923524	0.601298
	H91	H	0.904012	0.915674	0.375470
	H92	H	0.073708	0.621007	0.896136
	H93	H	0.083442	0.393821	0.077710
	H94	H	0.897175	0.624296	0.076056
	H95	H	0.891874	0.396843	0.901956
	H96	H	0.399219	0.119466	0.572762
	H97	H	0.590505	0.891779	0.575265
	H98	H	0.577689	0.121680	0.398611
	H99	H	0.387726	0.893210	0.400982
	H100	H	0.580609	0.422833	0.103418
	H101	H	0.580642	0.607639	0.868175
	H102	H	0.402163	0.603223	0.102527
	H103	H	0.396241	0.414973	0.871834
	H104	H	0.102110	0.598236	0.396544
	H105	H	0.872957	0.591244	0.582760
	H106	H	0.103627	0.416278	0.571831
	H107	H	0.872991	0.417245	0.398412
	H108	H	0.897734	0.624892	0.079174
	H109	H	0.074181	0.395563	0.082810
	H110	H	0.078467	0.620093	0.901654
	H111	H	0.893267	0.392453	0.888932
	H112	H	0.074743	0.916044	0.605696
	H113	H	0.072224	0.092241	0.377812
	H114	H	0.900405	0.104878	0.603820
	H115	H	0.892523	0.915451	0.371815
	H116	H	0.602835	0.099195	0.902866
	H117	H	0.377725	0.096352	0.068950
	H118	H	0.602970	0.919448	0.075831
	H119	H	0.372148	0.917268	0.893801
	C120	C	0.366416	0.017300	0.611208
	C121	C	0.609837	0.999877	0.611171
	C122	C	0.609662	0.016447	0.367339
	C123	C	0.366284	1.000885	0.366772
	C124	C	0.608660	0.388307	-0.002522
	C125	C	0.609491	0.630849	0.978492
	C126	C	0.367841	0.629675	-0.005161
	C127	C	0.366945	0.386524	0.979725
	C128	C	-0.005309	0.631105	0.368378
	C129	C	0.978113	0.631582	0.609427
	C130	C	-0.003547	0.389014	0.606623
	C131	C	0.979206	0.387387	0.365417
	C132	C	0.866879	0.518616	0.108452
	C133	C	0.109714	0.500672	0.109524
	C134	C	0.109224	0.516695	0.865455
	C135	C	0.864569	0.500839	0.864193
	C136	C	0.107692	0.888529	0.498107
	C137	C	0.108687	0.130879	0.479877
	C138	C	0.865648	0.132735	0.498011
	C139	C	0.866668	0.889060	0.481292
	C140	C	0.497540	0.130294	0.867693
	C141	C	0.480085	0.129923	0.109474
	C142	C	0.497447	0.887171	0.108288
	C143	C	0.480041	0.886591	0.866573
	C144	C	0.367207	0.896408	0.667813
	C145	C	0.609348	0.120130	0.669307
	C146	C	0.610582	0.895868	0.309553
	C147	C	0.363792	0.120015	0.306405
	C148	C	0.665188	0.389384	0.875404
	C149	C	0.668376	0.632036	0.100022
	C150	C	0.308793	0.629584	0.873459
	C151	C	0.308202	0.387296	0.100830
	C152	C	0.873436	0.689479	0.366202
	C153	C	0.099122	0.690937	0.612477
	C154	C	0.874610	0.331427	0.607127
	C155	C	0.100399	0.328647	0.363122
	C156	C	0.874089	0.390075	0.663528
	C157	C	0.099944	0.631629	0.667874
	C158	C	0.873572	0.631103	0.308887
	C159	C	0.101257	0.388810	0.308085
	C160	C	0.365720	0.688013	0.873825
	C161	C	0.612278	0.690322	0.099194
	C162	C	0.610010	0.329739	0.876558
	C163	C	0.363581	0.327183	0.100474
	C164	C	0.667620	0.896055	0.368719
	C165	C	0.666134	0.120930	0.611014
	C166	C	0.308223	0.896913	0.611015
	C167	C	0.307064	0.120684	0.365901
	C168	C	0.865070	0.398857	0.167685
	C169	C	0.111494	0.620285	0.169013
	C170	C	0.109723	0.397128	0.805803
	C171	C	0.862668	0.620087	0.804829
	C172	C	0.167898	0.885784	0.377871
	C173	C	0.167090	0.131861	0.601369
	C174	C	0.807090	0.131476	0.376320
	C175	C	0.809807	0.890723	0.603369
	C176	C	0.376607	0.189526	0.864362
	C177	C	0.600713	0.189597	0.112848
	C178	C	0.376963	0.827875	0.110213
	C179	C	0.601371	0.827772	0.863599
	C180	C	0.376860	0.885191	0.168162
	C181	C	0.601147	0.131018	0.169302
	C182	C	0.375811	0.129245	0.809476
	C183	C	0.602643	0.888404	0.809860
	C184	C	0.864441	0.189025	0.375686
	C185	C	0.110852	0.190682	0.600323
	C186	C	0.111299	0.827306	0.378428
	C187	C	0.863345	0.829975	0.601918
	C188	C	0.169077	0.397389	0.862464
	C189	C	0.169774	0.619975	0.111041
	C190	C	0.809017	0.398207	0.108549
	C191	C	0.805240	0.620392	0.863157
	C192	C	0.390403	0.101032	0.587375
	C193	C	0.587383	0.915319	0.587726
	C194	C	0.584820	0.100055	0.390951
	C195	C	0.391705	0.918081	0.392072
	C196	C	0.584969	0.411536	0.082604
	C197	C	0.584099	0.606098	0.894198
	C198	C	0.392890	0.605677	0.079212
	C199	C	0.392462	0.410419	0.895563
	C200	C	0.078950	0.606706	0.394128
	C201	C	0.893547	0.607767	0.584081
	C202	C	0.081279	0.412362	0.582752
	C203	C	0.894676	0.411146	0.390241
	C204	C	0.891323	0.602170	0.084402
	C205	C	0.084834	0.417570	0.084557
	C206	C	0.084577	0.599816	0.890831
	C207	C	0.889110	0.417370	0.888706
	C208	C	0.082497	0.913800	0.581859
	C209	C	0.083328	0.106005	0.395771
	C210	C	0.890184	0.110152	0.582912
	C211	C	0.890859	0.912168	0.396396
	C212	C	0.582113	0.106780	0.892890
	C213	C	0.396593	0.104987	0.083317
	C214	C	0.581865	0.911680	0.083770
	C215	C	0.395329	0.910229	0.890788
	Zn216	Zn	0.489133	0.007952	0.740003
	Zn217	Zn	0.488830	0.007828	0.237349
	Zn218	Zn	0.736904	0.509666	-0.011571
	Zn219	Zn	0.238590	0.508722	-0.013199
	Zn220	Zn	-0.013681	0.760518	0.489567
	Zn221	Zn	-0.011712	0.259547	0.486693
	Zn222	Zn	-0.012533	0.509400	0.735981
	Zn223	Zn	-0.012516	0.510289	0.238419
	Zn224	Zn	0.488922	0.758775	-0.013301
	Zn225	Zn	0.488662	0.258654	-0.010769
	Zn226	Zn	0.738900	0.009521	0.489777
	Zn227	Zn	0.237052	0.009112	0.489533
	N228	N	0.402639	0.972264	0.668112
	N229	N	0.575246	0.043893	0.669329
	N230	N	0.575513	0.971782	0.308437
	N231	N	0.400014	0.044507	0.306837
	N232	N	0.664332	0.425136	0.951658
	N233	N	0.666773	0.595901	0.023896
	N234	N	0.309838	0.594257	0.949940
	N235	N	0.310049	0.423101	0.024733
	N236	N	0.949935	0.689756	0.402320
	N237	N	0.022445	0.690984	0.576974
	N238	N	0.951695	0.330630	0.572541
	N239	N	0.023345	0.327499	0.397763
	N240	N	0.950731	0.425305	0.663228
	N241	N	0.023655	0.595687	0.666251
	N242	N	0.950148	0.595735	0.310051
	N243	N	0.024886	0.424782	0.309446
	N244	N	0.401612	0.688347	0.950330
	N245	N	0.576635	0.689787	0.022512
	N246	N	0.575678	0.328864	0.953697
	N247	N	0.399329	0.326556	0.024027
	N248	N	0.667352	0.972163	0.403673
	N249	N	0.666641	0.045129	0.575517
	N250	N	0.307388	0.973109	0.576670
	N251	N	0.308392	0.045574	0.402552
	N252	N	0.900241	0.474646	0.167862
	N253	N	0.075188	0.545106	0.168243
	N254	N	0.073331	0.472402	0.807490
	N255	N	0.898988	0.544827	0.805496
	N256	N	0.165957	0.923263	0.453267
	N257	N	0.165846	0.095278	0.525472
	N258	N	0.807504	0.097332	0.453270
	N259	N	0.812104	0.927053	0.527364
	N260	N	0.453442	0.190518	0.899836
	N261	N	0.524502	0.189021	0.076328
	N262	N	0.453091	0.828897	0.073920
	N263	N	0.524387	0.826674	0.898243
	N264	N	0.452931	0.921629	0.166906
	N265	N	0.525264	0.094395	0.167358
	N266	N	0.452070	0.093232	0.811396
	N267	N	0.526228	0.924141	0.811518
	N268	N	0.900131	0.189987	0.452284
	N269	N	0.075535	0.190413	0.523465
	N270	N	0.074691	0.828942	0.454185
	N271	N	0.897989	0.828864	0.524952
	N272	N	0.168757	0.472704	0.898861
	N273	N	0.168684	0.544685	0.074528
	N274	N	0.809853	0.473708	0.072359
	N275	N	0.806240	0.545177	0.899552
	O276	O	0.573945	0.701350	0.623795
	H277	H	0.569231	0.712279	0.628706
	H278	H	0.566169	0.692846	0.616906
	O279	O	0.872950	0.864723	-0.013494
	H280	H	0.880505	0.859909	-0.024909
	H281	H	0.891484	0.851315	-0.020900
	O282	O	-0.141572	0.052939	1.031159
	H283	H	-0.139791	0.077661	1.035081
	H284	H	-0.154103	0.030875	1.026511
	O285	O	1.166149	-0.172913	-0.174287
	H286	H	1.179127	-0.147924	-0.165596
	H287	H	1.177646	-0.171192	-0.159743
	O288	O	-0.146047	0.004276	1.025903
	H289	H	-0.148731	-0.005601	1.019678
	H290	H	-0.138647	-0.000776	1.010172
	O291	O	0.622305	0.566088	0.485655
	H292	H	0.624555	0.565542	0.498018
	H293	H	0.625053	0.563217	0.477453
	O294	O	0.621471	0.364983	0.440050
	H295	H	0.630142	0.354630	0.461240
	H296	H	0.610903	0.348807	0.439368
	O297	O	0.890248	1.160501	0.788151
	H298	H	0.905135	1.170246	0.794648
	H299	H	0.886729	1.137467	0.789749
	O300	O	0.058100	0.138293	-0.020041
	H301	H	0.060700	0.134826	-0.019240
	H302	H	0.071733	0.135418	-0.029332
	O303	O	0.598293	0.503926	0.572487
	H304	H	0.596205	0.517009	0.575828
	H305	H	0.597572	0.508028	0.575613
	O306	O	0.985613	0.146673	0.124471
	H307	H	0.969218	0.158202	0.133517
	H308	H	0.980297	0.149720	0.116342
	O309	O	0.387487	0.573834	0.410244
	H310	H	0.406833	0.582721	0.408102
	H311	H	0.381631	0.585231	0.397437
	O312	O	1.608721	0.494099	0.457301
	H313	H	1.619240	0.483190	0.464248
	H314	H	1.604905	0.496941	0.461903
	O315	O	0.529154	0.312920	0.469937
	H316	H	0.535139	0.318343	0.474180
	H317	H	0.515668	0.306775	0.483368
	O318	O	0.474920	0.435987	0.584030
	H319	H	0.470167	0.453234	0.588861
	H320	H	0.492383	0.433331	0.602509
	O321	O	0.835160	-0.030326	1.189474
	H322	H	0.846748	-0.042527	1.205574
	H323	H	0.839580	-0.046654	1.179316
	O324	O	-0.031030	-0.052407	0.933060
	H325	H	-0.039088	-0.058629	0.931440
	H326	H	-0.027069	-0.052032	0.946771
	O327	O	0.343454	0.333871	0.478966
	H328	H	0.336845	0.346105	0.477332
	H329	H	0.329824	0.340694	0.477318
	O330	O	0.311766	0.458040	0.667115
	H331	H	0.312915	0.448313	0.672789
	H332	H	0.314721	0.439522	0.662443
	O333	O	1.169819	1.057472	1.055536
	H334	H	1.175736	1.047921	1.070548
	H335	H	1.176045	1.059364	1.032919
	O336	O	0.370465	0.394851	0.516470
	H337	H	0.364048	0.403046	0.509075
	H338	H	0.366075	0.394596	0.505935
	O339	O	0.940074	-0.025168	1.187612
	H340	H	0.940837	-0.013199	1.207513
	H341	H	0.946017	-0.027385	1.191628
	O342	O	-0.651089	0.678066	1.397359
	H343	H	-0.652831	0.667939	1.397316
	H344	H	-0.653382	0.675053	1.406150
	O345	O	0.535284	0.441427	0.452047
	H346	H	0.521598	0.428351	0.459119
	H347	H	0.530039	0.431073	0.448308
	O348	O	0.486970	0.633693	0.412113
	H349	H	0.497164	0.627567	0.415396
	H350	H	0.488863	0.634198	0.410185
	O351	O	0.155940	0.065563	-0.034010
	H352	H	0.151578	0.052547	-0.015532
	H353	H	0.169824	0.072024	-0.023788
	O354	O	0.948720	1.194436	-0.105091
	H355	H	0.959493	1.185883	-0.097633
	H356	H	0.958613	1.189512	-0.091074
	O357	O	-0.197871	0.986180	-0.115265
	H358	H	-0.193731	0.970221	-0.108293
	H359	H	-0.206281	0.991309	-0.103435
	O360	O	0.324738	0.653624	0.470935
	H361	H	0.318228	0.654009	0.471173
	H362	H	0.325871	0.639957	0.482813
	O363	O	0.500567	0.562428	0.565381
	H364	H	0.506910	0.565369	0.555875
	H365	H	0.491937	0.561724	0.560901
	O366	O	1.144487	0.865455	1.061652
	H367	H	1.169898	0.858782	1.079894
	H368	H	1.125585	0.859672	1.072812
	O369	O	0.540506	0.379034	0.327631
	H370	H	0.555895	0.368356	0.325700
	H371	H	0.556395	0.371416	0.324458
	O372	O	0.810716	0.856096	0.144999
	H373	H	0.810592	0.837446	0.154888
	H374	H	0.810914	0.851908	0.142882
	O375	O	0.367102	0.663077	0.298558
	H376	H	0.386736	0.653249	0.301561
	H377	H	0.378080	0.660457	0.314458
	O378	O	0.566541	0.415482	0.644665
	H379	H	0.572078	0.429928	0.641389
	H380	H	0.568191	0.413114	0.660832
	O381	O	0.393198	0.393815	0.525742
	H382	H	0.416203	0.371215	0.518993
	H383	H	0.379355	0.382345	0.538412
	O384	O	0.028118	0.935386	0.890292
	H385	H	0.019657	0.958810	0.900447
	H386	H	0.031031	0.917997	0.884949
	O387	O	1.128520	1.094129	0.155163
	H388	H	1.124420	1.091569	0.166961
	H389	H	1.119245	1.091107	0.165114
	O390	O	0.343991	0.512150	0.493854
	H391	H	0.347221	0.504457	0.506642
	H392	H	0.357108	0.503379	0.479385
	O393	O	1.012722	-1.006628	1.815633
	H394	H	1.008862	-1.012177	1.807905
	H395	H	1.016511	-1.003921	1.823924
	O396	O	-0.029035	0.817163	1.108861
	H397	H	-0.035501	0.818530	1.113308
	H398	H	-0.047800	0.818778	1.092971
	O399	O	0.562265	0.534685	0.288327
	H400	H	0.584314	0.540010	0.277674
	H401	H	0.570719	0.509200	0.287303
	O402	O	1.080589	-0.042443	0.870869
	H403	H	1.113523	-0.035953	0.866581
	H404	H	1.097410	-0.067470	0.849870
	O405	O	0.016234	-0.054662	0.030595
	H406	H	0.018070	-0.064466	0.020347
	H407	H	0.005884	-0.058768	0.013614
	O408	O	0.863759	0.815581	1.041739
	H409	H	0.873792	0.812125	1.039516
	H410	H	0.871710	0.805811	1.042170
	O411	O	0.903463	1.167863	0.067144
	H412	H	0.907774	1.177446	0.061627
	H413	H	0.892754	1.175259	0.070086
	O414	O	0.080233	-0.048953	1.164997
	H415	H	0.076511	-0.061656	1.175189
	H416	H	0.085239	-0.054961	1.170940
	O417	O	0.837060	0.126933	0.932180
	H418	H	0.852870	0.126260	0.924679
	H419	H	0.821620	0.128592	0.922728
	O420	O	0.089825	0.987390	-0.189131
	H421	H	0.095506	0.991932	-0.185761
	H422	H	0.095565	0.978786	-0.194426
	O423	O	1.608642	0.557003	-0.505601
	H424	H	1.606977	0.542449	-0.515823
	H425	H	1.603988	0.566089	-0.501520
	O426	O	0.180566	0.104913	0.968238
	H427	H	0.197695	0.108673	0.954278
	H428	H	0.150339	0.107462	0.978962
	O429	O	0.509087	0.447556	0.532698
	H430	H	0.499347	0.445435	0.538171
	H431	H	0.499089	0.442991	0.542981
