data_Molecule from HDF5

_cell_length_a		16.410935
_cell_length_b		16.300987
_cell_length_c		15.987081
_cell_angle_alpha	89.837111
_cell_angle_beta	90.207103
_cell_angle_gamma	89.926882
_symmetry_space_group_name_H-M	'P 1'
_symmetry_Int_Tables_number		1

loop_
	_symmetry_equiv_pos_as_xyz
	x,y,z

loop_
	_atom_site_label
	_atom_site_type_symbol
	_atom_site_fract_x
	_atom_site_fract_y
	_atom_site_fract_z
	H0	H	0.407404	0.830586	0.709875
	H1	H	0.600669	0.159214	0.708642
	H2	H	0.598646	0.830623	0.286969
	H3	H	0.401564	0.156346	0.275424
	H4	H	0.723374	0.395681	0.830534
	H5	H	0.724173	0.595994	0.160429
	H6	H	0.292577	0.597216	0.830502
	H7	H	0.293263	0.390955	0.159401
	H8	H	0.844270	0.711572	0.393402
	H9	H	0.166375	0.716336	0.599881
	H10	H	0.845880	0.276530	0.603440
	H11	H	0.165572	0.272384	0.392297
	H12	H	0.844872	0.399116	0.712299
	H13	H	0.170529	0.594272	0.709877
	H14	H	0.845356	0.592809	0.279763
	H15	H	0.170682	0.395952	0.283495
	H16	H	0.411445	0.708521	0.829661
	H17	H	0.610644	0.707646	0.161165
	H18	H	0.609218	0.279876	0.829879
	H19	H	0.407617	0.277851	0.158958
	H20	H	0.723720	0.835712	0.391047
	H21	H	0.722363	0.156793	0.600662
	H22	H	0.284044	0.834025	0.601522
	H23	H	0.283256	0.156045	0.389257
	H24	H	0.912431	0.332145	0.210386
	H25	H	0.106653	0.659327	0.208700
	H26	H	0.105510	0.332364	0.782866
	H27	H	0.911922	0.659138	0.782289
	H28	H	0.220121	0.892224	0.333126
	H29	H	0.222429	0.099949	0.659747
	H30	H	0.786616	0.099577	0.330865
	H31	H	0.789637	0.896102	0.661119
	H32	H	0.347997	0.216508	0.886824
	H33	H	0.668023	0.211828	0.099583
	H34	H	0.348990	0.772065	0.099388
	H35	H	0.669669	0.777359	0.892559
	H36	H	0.343625	0.894932	0.208011
	H37	H	0.667457	0.091749	0.213418
	H38	H	0.343078	0.091792	0.782787
	H39	H	0.668588	0.896233	0.779074
	H40	H	0.901063	0.213836	0.331746
	H41	H	0.103346	0.207162	0.662636
	H42	H	0.102025	0.783861	0.330873
	H43	H	0.904404	0.780525	0.661367
	H44	H	0.228127	0.334758	0.889254
	H45	H	0.228979	0.655598	0.099875
	H46	H	0.789041	0.334745	0.102792
	H47	H	0.788709	0.656852	0.890609
	H48	H	0.412187	0.108191	0.581698
	H49	H	0.604670	0.878732	0.580810
	H50	H	0.596530	0.112032	0.406053
	H51	H	0.406208	0.878103	0.406505
	H52	H	0.600168	0.407807	0.112149
	H53	H	0.604529	0.583258	0.876397
	H54	H	0.418491	0.586810	0.114357
	H55	H	0.417385	0.413301	0.878415
	H56	H	0.124032	0.593681	0.401198
	H57	H	0.892587	0.585879	0.586988
	H58	H	0.117617	0.401430	0.575772
	H59	H	0.889692	0.402890	0.397620
	H60	H	0.121007	0.411062	0.594348
	H61	H	0.891032	0.588647	0.593092
	H62	H	0.122621	0.594940	0.408877
	H63	H	0.892299	0.399566	0.411737
	H64	H	0.415517	0.581146	0.113474
	H65	H	0.595835	0.585027	0.878236
	H66	H	0.595392	0.401059	0.112866
	H67	H	0.424087	0.402463	0.877471
	H68	H	0.594904	0.111846	0.403375
	H69	H	0.598886	0.876751	0.594644
	H70	H	0.404656	0.113012	0.587595
	H71	H	0.410434	0.878984	0.403209
	H72	H	0.914198	0.610333	0.081716
	H73	H	0.104620	0.378367	0.086816
	H74	H	0.105262	0.614221	0.902982
	H75	H	0.920537	0.382740	0.911693
	H76	H	0.099010	0.905129	0.616994
	H77	H	0.096637	0.087805	0.376338
	H78	H	0.914919	0.076081	0.609912
	H79	H	0.903907	0.900862	0.374542
	H80	H	0.624040	0.091068	0.901781
	H81	H	0.391201	0.080790	0.092405
	H82	H	0.620321	0.907784	0.088219
	H83	H	0.390510	0.893234	0.908831
	H84	H	0.626150	0.899664	0.097274
	H85	H	0.388866	0.097268	0.083023
	H86	H	0.620618	0.087313	0.909740
	H87	H	0.395099	0.905120	0.908855
	H88	H	0.918799	0.094346	0.615005
	H89	H	0.093167	0.078665	0.380681
	H90	H	0.093204	0.910255	0.613584
	H91	H	0.911353	0.913275	0.379565
	H92	H	0.097738	0.610498	0.905567
	H93	H	0.103035	0.377584	0.090347
	H94	H	0.912601	0.613468	0.089936
	H95	H	0.907430	0.379072	0.910382
	H96	H	0.413789	0.111396	0.592198
	H97	H	0.590831	0.882038	0.582550
	H98	H	0.593747	0.111333	0.406120
	H99	H	0.411382	0.880555	0.408203
	H100	H	0.603889	0.400003	0.115867
	H101	H	0.601165	0.591128	0.874499
	H102	H	0.421540	0.581981	0.112265
	H103	H	0.412182	0.402746	0.874484
	H104	H	0.121771	0.587490	0.405901
	H105	H	0.890367	0.593108	0.587108
	H106	H	0.126004	0.391222	0.591102
	H107	H	0.895840	0.413489	0.407070
	H108	H	0.920205	0.610990	0.088074
	H109	H	0.102052	0.379570	0.087726
	H110	H	0.104103	0.610571	0.911045
	H111	H	0.916558	0.377616	0.899090
	H112	H	0.091232	0.902739	0.615784
	H113	H	0.087316	0.086107	0.379214
	H114	H	0.900976	0.087943	0.618367
	H115	H	0.918850	0.900249	0.377891
	H116	H	0.620967	0.082794	0.900812
	H117	H	0.396190	0.081841	0.074626
	H118	H	0.622782	0.895257	0.085269
	H119	H	0.390164	0.899588	0.898227
	C120	C	0.381376	0.003558	0.617937
	C121	C	0.626401	0.986772	0.616975
	C122	C	0.624529	0.004293	0.375410
	C123	C	0.380243	0.986237	0.373905
	C124	C	0.629731	0.373744	0.004384
	C125	C	0.629649	0.615507	0.986373
	C126	C	0.388344	0.614840	0.004598
	C127	C	0.388105	0.374620	0.985739
	C128	C	0.015561	0.619218	0.374345
	C129	C	0.998259	0.618790	0.618745
	C130	C	0.015119	0.372838	0.618965
	C131	C	0.998845	0.373799	0.375292
	C132	C	0.886614	0.504374	0.117443
	C133	C	0.132025	0.486076	0.118275
	C134	C	0.130749	0.504613	0.875107
	C135	C	0.886470	0.487203	0.875739
	C136	C	0.124066	0.875816	0.506084
	C137	C	0.123573	0.114968	0.487494
	C138	C	0.881680	0.117401	0.505096
	C139	C	0.882240	0.874919	0.486729
	C140	C	0.515244	0.116883	0.873365
	C141	C	0.498242	0.116220	0.116191
	C142	C	0.516103	0.871299	0.118543
	C143	C	0.499093	0.871634	0.874591
	C144	C	0.385254	0.880228	0.673528
	C145	C	0.622536	0.109411	0.672709
	C146	C	0.621199	0.880751	0.321546
	C147	C	0.381559	0.107849	0.314795
	C148	C	0.685945	0.375202	0.880113
	C149	C	0.686139	0.614886	0.111030
	C150	C	0.331594	0.615653	0.880084
	C151	C	0.331464	0.372771	0.109740
	C152	C	0.893095	0.673415	0.374396
	C153	C	0.118988	0.676503	0.618618
	C154	C	0.894011	0.316183	0.620867
	C155	C	0.118743	0.313804	0.374818
	C156	C	0.893572	0.377054	0.675419
	C157	C	0.121055	0.615681	0.673570
	C158	C	0.893792	0.614601	0.317598
	C159	C	0.121330	0.375309	0.320430
	C160	C	0.390540	0.671228	0.879592
	C161	C	0.629575	0.670527	0.111354
	C162	C	0.629001	0.317693	0.879704
	C163	C	0.388607	0.316515	0.109847
	C164	C	0.683126	0.883159	0.373427
	C165	C	0.683193	0.108465	0.618476
	C166	C	0.323951	0.881913	0.619518
	C167	C	0.322666	0.107704	0.371350
	C168	C	0.890321	0.381439	0.173703
	C169	C	0.128442	0.609637	0.172618
	C170	C	0.127345	0.381523	0.819151
	C171	C	0.890239	0.610280	0.819732
	C172	C	0.181062	0.874801	0.382141
	C173	C	0.182455	0.116978	0.610929
	C174	C	0.825127	0.118102	0.380382
	C175	C	0.827110	0.876008	0.611517
	C176	C	0.395159	0.175887	0.870558
	C177	C	0.619548	0.172948	0.118305
	C178	C	0.395826	0.812505	0.118135
	C179	C	0.621200	0.816215	0.874218
	C180	C	0.393217	0.873659	0.172073
	C181	C	0.619042	0.113383	0.175252
	C182	C	0.392624	0.113603	0.818567
	C183	C	0.620528	0.875238	0.817581
	C184	C	0.882061	0.175206	0.381111
	C185	C	0.123161	0.170415	0.612508
	C186	C	0.122151	0.820658	0.381107
	C187	C	0.884184	0.818602	0.611657
	C188	C	0.188077	0.382721	0.872601
	C189	C	0.189473	0.607655	0.118527
	C190	C	0.828921	0.382842	0.119958
	C191	C	0.828824	0.608874	0.873636
	C192	C	0.403568	0.088681	0.593925
	C193	C	0.604598	0.901230	0.592984
	C194	C	0.601813	0.089528	0.398492
	C195	C	0.402732	0.901291	0.398861
	C196	C	0.606606	0.396375	0.091218
	C197	C	0.607107	0.593155	0.899175
	C198	C	0.411798	0.590458	0.091126
	C199	C	0.411181	0.399074	0.899077
	C200	C	0.100809	0.598207	0.398224
	C201	C	0.913383	0.595783	0.595713
	C202	C	0.099707	0.394778	0.594330
	C203	C	0.914487	0.398238	0.398454
	C204	C	0.909093	0.589534	0.093556
	C205	C	0.109768	0.400555	0.095027
	C206	C	0.108669	0.589852	0.899315
	C207	C	0.908559	0.401846	0.899857
	C208	C	0.101130	0.899213	0.592916
	C209	C	0.099526	0.091195	0.401121
	C210	C	0.904668	0.093238	0.591753
	C211	C	0.904572	0.898092	0.399753
	C212	C	0.599988	0.093850	0.897233
	C213	C	0.413764	0.093406	0.090635
	C214	C	0.601062	0.894167	0.096501
	C215	C	0.414000	0.892976	0.898501
	Zn216	Zn	0.505135	-0.005622	0.745726
	Zn217	Zn	0.504215	-0.006126	0.246896
	Zn218	Zn	0.756615	0.495628	-0.003631
	Zn219	Zn	0.259883	0.494235	-0.004829
	Zn220	Zn	0.004638	0.748285	0.496625
	Zn221	Zn	0.004703	0.243277	0.497029
	Zn222	Zn	0.008952	0.495670	0.747442
	Zn223	Zn	0.009200	0.496107	0.245810
	Zn224	Zn	0.509967	0.742071	-0.003487
	Zn225	Zn	0.507625	0.246761	-0.005788
	Zn226	Zn	0.754653	-0.003794	0.495059
	Zn227	Zn	0.251415	-0.004516	0.496475
	N228	N	0.420123	0.956907	0.672935
	N229	N	0.587954	0.032645	0.671729
	N230	N	0.585196	0.957015	0.322721
	N231	N	0.416610	0.031335	0.316197
	N232	N	0.686479	0.409312	0.958738
	N233	N	0.686204	0.581290	0.032412
	N234	N	0.329919	0.581581	0.958867
	N235	N	0.331008	0.408244	0.031569
	N236	N	0.969803	0.676399	0.409061
	N237	N	0.041623	0.678612	0.585408
	N238	N	0.970629	0.313463	0.586563
	N239	N	0.041462	0.312600	0.408135
	N240	N	0.970039	0.411460	0.674578
	N241	N	0.044942	0.580575	0.673769
	N242	N	0.970992	0.581658	0.317467
	N243	N	0.045865	0.411917	0.320646
	N244	N	0.425160	0.670976	0.958157
	N245	N	0.595089	0.671127	0.032795
	N246	N	0.594946	0.316582	0.958051
	N247	N	0.423302	0.317792	0.031638
	N248	N	0.685354	0.961068	0.406311
	N249	N	0.685740	0.031047	0.584486
	N250	N	0.321442	0.959489	0.585631
	N251	N	0.321737	0.031009	0.407517
	N252	N	0.925536	0.457992	0.172411
	N253	N	0.093585	0.532851	0.172772
	N254	N	0.092364	0.458252	0.820628
	N255	N	0.925170	0.533623	0.820683
	N256	N	0.182320	0.908324	0.461005
	N257	N	0.182994	0.083156	0.532087
	N258	N	0.824436	0.082994	0.458729
	N259	N	0.825769	0.910158	0.532799
	N260	N	0.472418	0.177931	0.904100
	N261	N	0.543262	0.174615	0.082215
	N262	N	0.473368	0.810815	0.085586
	N263	N	0.544607	0.813765	0.908827
	N264	N	0.469000	0.909307	0.172547
	N265	N	0.542546	0.078986	0.174079
	N266	N	0.468368	0.077356	0.820178
	N267	N	0.543657	0.908964	0.817838
	N268	N	0.916290	0.175081	0.459685
	N269	N	0.087247	0.169464	0.534690
	N270	N	0.087490	0.821082	0.459322
	N271	N	0.917801	0.817862	0.533065
	N272	N	0.190414	0.460194	0.906547
	N273	N	0.191924	0.529850	0.085604
	N274	N	0.826501	0.460224	0.085724
	N275	N	0.826427	0.531294	0.907606
	O276	O	0.085986	0.005876	0.170866
	H277	H	0.073193	0.016703	0.166576
	H278	H	0.094958	0.003503	0.174078
	O279	O	0.504650	0.562715	0.560052
	H280	H	0.517993	0.557619	0.577184
	H281	H	0.517897	0.566313	0.557432
	O282	O	1.042346	0.031447	0.016589
	H283	H	1.029259	0.031114	0.006451
	H284	H	1.046439	0.037395	0.009248
	O285	O	-0.134992	0.877283	0.117505
	H286	H	-0.137260	0.867905	0.129717
	H287	H	-0.125387	0.893918	0.136856
	O288	O	0.693687	0.344305	0.455586
	H289	H	0.693334	0.349617	0.443667
	H290	H	0.707369	0.330345	0.441145
	O291	O	0.483133	0.500227	0.444004
	H292	H	0.491309	0.503195	0.437925
	H293	H	0.473998	0.497992	0.442144
	O294	O	0.587658	1.405384	0.541091
	H295	H	0.583328	1.415411	0.543473
	H296	H	0.575020	1.415300	0.539341
	O297	O	0.399524	-0.464598	-0.552936
	H298	H	0.404314	-0.463679	-0.564545
	H299	H	0.394059	-0.457435	-0.560960
	O300	O	0.653926	0.434312	0.335609
	H301	H	0.649843	0.435137	0.331308
	H302	H	0.645018	0.433010	0.336293
	O303	O	-0.038393	1.011001	0.927416
	H304	H	-0.032272	1.016396	0.918020
	H305	H	-0.034047	1.004532	0.930311
	O306	O	-0.482479	1.394427	0.326728
	H307	H	-0.476556	1.386964	0.319856
	H308	H	-0.498387	1.397257	0.340042
	O309	O	1.002216	0.085379	0.026926
	H310	H	0.997862	0.085254	0.023654
	H311	H	1.004310	0.083371	0.032874
	O312	O	0.165451	-0.030095	0.830389
	H313	H	0.157196	-0.036345	0.829309
	H314	H	0.163984	-0.036690	0.816320
	O315	O	-0.017470	0.867282	0.964015
	H316	H	-0.026931	0.854923	0.959937
	H317	H	-0.016044	0.866415	0.966410
	O318	O	0.575112	0.605033	0.389782
	H319	H	0.564343	0.605645	0.386034
	H320	H	0.560877	0.610201	0.392187
	O321	O	0.409772	0.443656	0.421444
	H322	H	0.418185	0.429489	0.417528
	H323	H	0.395600	0.442147	0.432752
	O324	O	0.640938	0.591457	0.518202
	H325	H	0.638365	0.586241	0.518499
	H326	H	0.633303	0.570706	0.509751
	O327	O	-0.046878	0.863944	0.947640
	H328	H	-0.061621	0.862177	0.951014
	H329	H	-0.043905	0.858408	0.956249
	O330	O	0.404595	0.314297	0.587238
	H331	H	0.405744	0.308393	0.589548
	H332	H	0.400752	0.317194	0.596203
	O333	O	0.031115	1.115702	1.000762
	H334	H	0.033738	1.121140	0.994934
	H335	H	0.034591	1.113243	0.995316
	O336	O	0.950703	1.029138	0.965480
	H337	H	0.939587	1.017867	0.967825
	H338	H	0.945246	1.031601	0.956884
	O339	O	0.426336	0.590651	0.547647
	H340	H	0.427420	0.589939	0.540632
	H341	H	0.433953	0.591586	0.549834
	O342	O	1.111579	-0.083235	0.013473
	H343	H	1.099623	-0.073964	-0.001005
	H344	H	1.110804	-0.078761	0.013455
	O345	O	0.486591	0.683724	0.456927
	H346	H	0.475183	0.684940	0.444946
	H347	H	0.480244	0.685861	0.460770
	O348	O	1.018904	1.111518	1.113753
	H349	H	1.014802	1.110628	1.117195
	H350	H	1.032846	1.119069	1.104897
	O351	O	0.997656	0.940835	-0.028590
	H352	H	0.991635	0.934957	-0.008883
	H353	H	1.000112	0.941692	-0.027886
	O354	O	0.401969	0.396662	0.395019
	H355	H	0.396355	0.386504	0.397976
	H356	H	0.399271	0.398994	0.394178
	O357	O	0.496024	0.414507	0.530068
	H358	H	0.502464	0.413626	0.530307
	H359	H	0.491409	0.409903	0.536768
	O360	O	0.141302	-0.086102	-0.063248
	H361	H	0.145299	-0.081384	-0.058112
	H362	H	0.156094	-0.083684	-0.073079
	O363	O	0.496027	0.479365	0.506453
	H364	H	0.495754	0.473736	0.496221
	H365	H	0.498530	0.468875	0.490954
	O366	O	0.057051	0.081043	0.960423
	H367	H	0.055804	0.084622	0.960105
	H368	H	0.050568	0.091079	0.965258
	O369	O	0.631728	0.571730	0.617063
	H370	H	0.631686	0.561280	0.603020
	H371	H	0.632279	0.578076	0.627774
	O372	O	0.463814	0.603194	0.431181
	H373	H	0.454450	0.606081	0.430715
	H374	H	0.458649	0.609376	0.431228
	O375	O	0.523353	0.453221	0.601147
	H376	H	0.541212	0.463993	0.594632
	H377	H	0.525255	0.459311	0.603867
	O378	O	0.362627	0.450088	0.622748
	H379	H	0.364440	0.458249	0.623411
	H380	H	0.369478	0.451198	0.625234
	O381	O	0.456147	0.527684	0.462474
	H382	H	0.462538	0.521546	0.478330
	H383	H	0.465474	0.527487	0.463471
	O384	O	-0.102258	0.999802	-0.133516
	H385	H	-0.089951	0.991541	-0.138599
	H386	H	-0.098293	0.994475	-0.124743
	O387	O	0.987270	-0.036659	1.048171
	H388	H	0.986135	-0.031340	1.049818
	H389	H	0.992547	-0.032609	1.053784
	O390	O	-0.001908	0.911777	0.085210
	H391	H	-0.006017	0.904606	0.095638
	H392	H	0.004835	0.913179	0.101145
	O393	O	1.074258	1.118449	0.134544
	H394	H	1.076462	1.115024	0.135036
	H395	H	1.069449	1.116002	0.141735
	O396	O	0.870224	0.090570	0.927645
	H397	H	0.863636	0.089815	0.912736
	H398	H	0.874740	0.093422	0.932776
	O399	O	-0.146802	1.055164	0.963337
	H400	H	-0.156583	1.065808	0.946132
	H401	H	-0.152059	1.048865	0.938740
	O402	O	1.105983	0.975889	0.924353
	H403	H	1.114938	0.969623	0.913258
	H404	H	1.101555	0.965771	0.923058
	O405	O	0.519766	0.563397	0.581422
	H406	H	0.528111	0.576587	0.575515
	H407	H	0.529451	0.562823	0.583730
