data_Molecule from HDF5

_cell_length_a		16.463619
_cell_length_b		16.333512
_cell_length_c		16.034010
_cell_angle_alpha	89.693730
_cell_angle_beta	90.587586
_cell_angle_gamma	89.730538
_symmetry_space_group_name_H-M	'P 1'
_symmetry_Int_Tables_number		1

loop_
	_symmetry_equiv_pos_as_xyz
	x,y,z

loop_
	_atom_site_label
	_atom_site_type_symbol
	_atom_site_fract_x
	_atom_site_fract_y
	_atom_site_fract_z
	H0	H	0.390816	0.834805	0.716310
	H1	H	0.588674	0.159414	0.713641
	H2	H	0.586251	0.832107	0.290747
	H3	H	0.391534	0.159518	0.282542
	H4	H	0.709716	0.395068	0.835811
	H5	H	0.712531	0.597861	0.163297
	H6	H	0.270594	0.602071	0.838525
	H7	H	0.278316	0.391456	0.164972
	H8	H	0.830108	0.715248	0.393546
	H9	H	0.149706	0.716092	0.606318
	H10	H	0.831009	0.276571	0.604781
	H11	H	0.149676	0.273051	0.398876
	H12	H	0.829200	0.399314	0.714861
	H13	H	0.152191	0.596133	0.717661
	H14	H	0.829787	0.593805	0.281572
	H15	H	0.153142	0.394397	0.287645
	H16	H	0.388298	0.715037	0.837579
	H17	H	0.597411	0.710644	0.164728
	H18	H	0.592524	0.281817	0.833692
	H19	H	0.397216	0.279320	0.165403
	H20	H	0.710331	0.837071	0.393188
	H21	H	0.710694	0.155814	0.604967
	H22	H	0.271487	0.836595	0.603313
	H23	H	0.267613	0.157101	0.390185
	H24	H	0.896553	0.332757	0.213937
	H25	H	0.090707	0.658338	0.215981
	H26	H	0.090775	0.333087	0.787921
	H27	H	0.892730	0.659254	0.783993
	H28	H	0.203907	0.894680	0.334505
	H29	H	0.212910	0.100419	0.659995
	H30	H	0.769990	0.100352	0.336139
	H31	H	0.773750	0.892779	0.663538
	H32	H	0.333589	0.219107	0.892503
	H33	H	0.654758	0.211931	0.104267
	H34	H	0.335532	0.773423	0.106093
	H35	H	0.651938	0.774266	0.896399
	H36	H	0.331253	0.898017	0.211959
	H37	H	0.654065	0.093111	0.218510
	H38	H	0.329454	0.096694	0.782960
	H39	H	0.652845	0.895765	0.783869
	H40	H	0.884225	0.216737	0.337419
	H41	H	0.091561	0.206755	0.665580
	H42	H	0.084371	0.783200	0.334684
	H43	H	0.890492	0.780031	0.665386
	H44	H	0.213029	0.335401	0.895880
	H45	H	0.213813	0.654557	0.106914
	H46	H	0.774604	0.336073	0.106446
	H47	H	0.770512	0.656469	0.892029
	H48	H	0.403625	0.111607	0.591483
	H49	H	0.580422	0.879594	0.596893
	H50	H	0.581608	0.114002	0.402816
	H51	H	0.401194	0.881576	0.406105
	H52	H	0.598057	0.408894	0.118920
	H53	H	0.576888	0.594446	0.881562
	H54	H	0.405490	0.570413	0.112679
	H55	H	0.397162	0.410322	0.882462
	H56	H	0.106794	0.591871	0.409437
	H57	H	0.875374	0.594878	0.586553
	H58	H	0.102986	0.405464	0.589938
	H59	H	0.874104	0.396182	0.407616
	H60	H	0.108272	0.400944	0.601249
	H61	H	0.878479	0.583186	0.587442
	H62	H	0.103945	0.590260	0.416414
	H63	H	0.879496	0.406182	0.417682
	H64	H	0.415102	0.591789	0.115871
	H65	H	0.590977	0.583165	0.880714
	H66	H	0.577498	0.410443	0.112126
	H67	H	0.404578	0.410343	0.885422
	H68	H	0.575565	0.109823	0.412814
	H69	H	0.576511	0.883970	0.585213
	H70	H	0.399430	0.108311	0.579541
	H71	H	0.393129	0.882496	0.413466
	H72	H	0.900411	0.611352	0.089382
	H73	H	0.085369	0.381710	0.087544
	H74	H	0.082401	0.610986	0.908994
	H75	H	0.904254	0.384120	0.913252
	H76	H	0.078909	0.907117	0.616468
	H77	H	0.082493	0.078810	0.382438
	H78	H	0.898833	0.082995	0.616280
	H79	H	0.894082	0.914076	0.383965
	H80	H	0.613619	0.093095	0.892675
	H81	H	0.383279	0.083134	0.081280
	H82	H	0.607441	0.907890	0.098742
	H83	H	0.377881	0.901211	0.911291
	H84	H	0.611893	0.894413	0.096931
	H85	H	0.377349	0.086331	0.095430
	H86	H	0.605820	0.098830	0.920800
	H87	H	0.379902	0.906689	0.912354
	H88	H	0.900197	0.085315	0.617541
	H89	H	0.067754	0.084874	0.385405
	H90	H	0.083673	0.903218	0.618538
	H91	H	0.905318	0.904287	0.384901
	H92	H	0.081409	0.609244	0.914166
	H93	H	0.092345	0.377267	0.093579
	H94	H	0.902924	0.611175	0.088883
	H95	H	0.894943	0.380034	0.913616
	H96	H	0.391985	0.114312	0.588315
	H97	H	0.589115	0.880356	0.586392
	H98	H	0.587660	0.113009	0.413286
	H99	H	0.391332	0.878006	0.403326
	H100	H	0.585151	0.391800	0.120550
	H101	H	0.575689	0.577941	0.887785
	H102	H	0.392754	0.587934	0.122560
	H103	H	0.401626	0.403334	0.882480
	H104	H	0.103586	0.584964	0.411167
	H105	H	0.874365	0.589181	0.597087
	H106	H	0.107129	0.393203	0.590824
	H107	H	0.877199	0.411090	0.402418
	H108	H	0.901754	0.611348	0.087499
	H109	H	0.083186	0.379555	0.097402
	H110	H	0.087067	0.611603	0.912882
	H111	H	0.899835	0.378691	0.904892
	H112	H	0.085162	0.909601	0.616091
	H113	H	0.079440	0.093602	0.379342
	H114	H	0.897688	0.085140	0.617873
	H115	H	0.892513	0.900053	0.378983
	H116	H	0.600731	0.072637	0.909882
	H117	H	0.377973	0.097438	0.083815
	H118	H	0.605890	0.901674	0.085632
	H119	H	0.378076	0.905213	0.906812
	C120	C	0.368925	0.005130	0.618569
	C121	C	0.612282	0.987765	0.620926
	C122	C	0.610829	0.005053	0.379574
	C123	C	0.366140	0.987767	0.375776
	C124	C	0.615537	0.374553	0.008285
	C125	C	0.613521	0.615773	0.991395
	C126	C	0.371670	0.616334	0.009784
	C127	C	0.372682	0.375643	0.991992
	C128	C	-0.001019	0.618142	0.379351
	C129	C	0.981934	0.618913	0.622180
	C130	C	-0.000299	0.372226	0.623462
	C131	C	0.982701	0.373310	0.379829
	C132	C	0.872322	0.504534	0.120414
	C133	C	0.116136	0.486293	0.123995
	C134	C	0.114135	0.504294	0.880465
	C135	C	0.869498	0.487959	0.878432
	C136	C	0.110737	0.875822	0.508282
	C137	C	0.109392	0.115805	0.490297
	C138	C	0.867768	0.116672	0.509047
	C139	C	0.868017	0.874824	0.491453
	C140	C	0.500666	0.119311	0.876356
	C141	C	0.485221	0.117606	0.120016
	C142	C	0.502351	0.872450	0.122745
	C143	C	0.484198	0.873640	0.878731
	C144	C	0.370569	0.883424	0.677485
	C145	C	0.610051	0.110107	0.676817
	C146	C	0.607641	0.881738	0.325897
	C147	C	0.369346	0.110206	0.319175
	C148	C	0.671065	0.375666	0.884394
	C149	C	0.672946	0.616248	0.114634
	C150	C	0.311085	0.619500	0.887254
	C151	C	0.316856	0.373425	0.115757
	C152	C	0.878077	0.675335	0.376164
	C153	C	0.102125	0.676834	0.624416
	C154	C	0.878746	0.315837	0.623709
	C155	C	0.102294	0.313416	0.380007
	C156	C	0.877936	0.376794	0.678597
	C157	C	0.103372	0.616941	0.679803
	C158	C	0.877826	0.615080	0.320271
	C159	C	0.104059	0.374058	0.324830
	C160	C	0.369622	0.675716	0.886644
	C161	C	0.615429	0.672388	0.115302
	C162	C	0.613094	0.319223	0.883637
	C163	C	0.376037	0.317655	0.115997
	C164	C	0.669580	0.884234	0.377101
	C165	C	0.670571	0.108328	0.622466
	C166	C	0.311433	0.884151	0.620844
	C167	C	0.307674	0.108951	0.372715
	C168	C	0.875183	0.381981	0.176783
	C169	C	0.112490	0.609035	0.179339
	C170	C	0.112061	0.382234	0.824404
	C171	C	0.871556	0.609990	0.821254
	C172	C	0.165569	0.875762	0.384101
	C173	C	0.171198	0.117627	0.612294
	C174	C	0.809136	0.118917	0.385460
	C175	C	0.811923	0.874046	0.614729
	C176	C	0.380868	0.178578	0.874692
	C177	C	0.606528	0.173336	0.122517
	C178	C	0.382417	0.814110	0.123459
	C179	C	0.604171	0.814741	0.877942
	C180	C	0.380246	0.875994	0.176469
	C181	C	0.606032	0.114221	0.179558
	C182	C	0.378839	0.118125	0.819505
	C183	C	0.604551	0.875195	0.821685
	C184	C	0.865841	0.176942	0.386276
	C185	C	0.111104	0.170815	0.614874
	C186	C	0.106560	0.820204	0.384147
	C187	C	0.869925	0.817700	0.615589
	C188	C	0.172894	0.383318	0.878578
	C189	C	0.173581	0.607305	0.125154
	C190	C	0.814730	0.383668	0.122698
	C191	C	0.810643	0.608706	0.875057
	C192	C	0.391748	0.089485	0.593722
	C193	C	0.588916	0.903341	0.596576
	C194	C	0.588140	0.090138	0.402789
	C195	C	0.388680	0.902804	0.400446
	C196	C	0.593298	0.396964	0.094905
	C197	C	0.588445	0.592113	0.905563
	C198	C	0.397005	0.590747	0.094943
	C199	C	0.394761	0.400673	0.905823
	C200	C	0.082989	0.595691	0.405031
	C201	C	0.897946	0.595727	0.597622
	C202	C	0.084095	0.393595	0.600783
	C203	C	0.898608	0.397456	0.402690
	C204	C	0.894974	0.589141	0.095680
	C205	C	0.093727	0.401626	0.099951
	C206	C	0.090619	0.588790	0.905020
	C207	C	0.892892	0.402988	0.903432
	C208	C	0.088915	0.899524	0.594653
	C209	C	0.083987	0.092489	0.404617
	C210	C	0.891963	0.091616	0.594891
	C211	C	0.890726	0.899016	0.404861
	C212	C	0.584992	0.095155	0.900719
	C213	C	0.401386	0.095590	0.094312
	C214	C	0.586444	0.894868	0.100427
	C215	C	0.400315	0.897403	0.902990
	Zn216	Zn	0.490692	-0.003463	0.748646
	Zn217	Zn	0.491666	-0.004335	0.250691
	Zn218	Zn	0.741788	0.496475	-0.000015
	Zn219	Zn	0.243476	0.495102	0.001437
	Zn220	Zn	-0.010405	0.748107	0.500987
	Zn221	Zn	-0.010292	0.243132	0.501580
	Zn222	Zn	-0.007877	0.496061	0.750956
	Zn223	Zn	-0.008019	0.495757	0.250333
	Zn224	Zn	0.493589	0.743160	0.001619
	Zn225	Zn	0.494275	0.248054	-0.000897
	Zn226	Zn	0.740096	-0.004667	0.499221
	Zn227	Zn	0.238509	-0.003153	0.497794
	N228	N	0.405690	0.959607	0.676032
	N229	N	0.574483	0.034189	0.675997
	N230	N	0.571690	0.957894	0.327198
	N231	N	0.404791	0.033860	0.320669
	N232	N	0.672915	0.409173	0.962900
	N233	N	0.671715	0.581642	0.036672
	N234	N	0.312349	0.583059	0.964761
	N235	N	0.314694	0.408765	0.037655
	N236	N	0.954204	0.677285	0.412246
	N237	N	0.025515	0.678408	0.589580
	N238	N	0.955433	0.312548	0.590660
	N239	N	0.025784	0.313017	0.413746
	N240	N	0.953979	0.411157	0.678716
	N241	N	0.027773	0.581647	0.678636
	N242	N	0.954040	0.580214	0.322087
	N243	N	0.028683	0.410524	0.324488
	N244	N	0.406717	0.673893	0.963746
	N245	N	0.578874	0.672002	0.037829
	N246	N	0.579424	0.318455	0.961775
	N247	N	0.409644	0.318722	0.037806
	N248	N	0.671756	0.961924	0.409749
	N249	N	0.672215	0.031051	0.588694
	N250	N	0.310234	0.960716	0.585042
	N251	N	0.305506	0.031573	0.407010
	N252	N	0.910431	0.458037	0.175267
	N253	N	0.077927	0.532563	0.179124
	N254	N	0.075999	0.458281	0.825507
	N255	N	0.907388	0.533777	0.823136
	N256	N	0.168482	0.909656	0.462393
	N257	N	0.170191	0.083799	0.533930
	N258	N	0.810013	0.082240	0.462749
	N259	N	0.810614	0.908791	0.536383
	N260	N	0.457713	0.179625	0.908977
	N261	N	0.530662	0.175533	0.086023
	N262	N	0.459255	0.811654	0.091055
	N263	N	0.528119	0.813520	0.912450
	N264	N	0.455673	0.911524	0.176428
	N265	N	0.529627	0.080341	0.178268
	N266	N	0.454494	0.081853	0.820569
	N267	N	0.528832	0.911024	0.822009
	N268	N	0.901480	0.175581	0.464088
	N269	N	0.073213	0.169760	0.538129
	N270	N	0.073291	0.820044	0.462450
	N271	N	0.903981	0.818276	0.537663
	N272	N	0.174217	0.460498	0.912664
	N273	N	0.176110	0.530125	0.091667
	N274	N	0.812785	0.460813	0.087976
	N275	N	0.809316	0.531648	0.909895
	O276	O	0.451446	0.545610	0.354085
	H277	H	0.449292	0.560424	0.350397
	H278	H	0.433439	0.549422	0.345886
	O279	O	0.581670	0.542096	0.363191
	H280	H	0.583991	0.558164	0.371331
	H281	H	0.568407	0.536024	0.360174
	O282	O	1.065605	0.025740	1.016109
	H283	H	1.071683	0.017242	1.014731
	H284	H	1.083458	0.021661	0.998690
	O285	O	0.573588	0.392383	0.386651
	H286	H	0.577072	0.394278	0.375630
	H287	H	0.579437	0.399764	0.389464
	O288	O	0.836847	0.943303	0.880452
	H289	H	0.836695	0.916315	0.877456
	H290	H	0.818243	0.963109	0.894334
	O291	O	0.158769	1.087967	-0.077386
	H292	H	0.143653	1.083490	-0.087509
	H293	H	0.157379	1.085205	-0.082462
	O294	O	0.395371	0.641154	0.381519
	H295	H	0.372002	0.663214	0.371003
	H296	H	0.402884	0.648284	0.415939
	O297	O	0.520522	0.461621	0.495873
	H298	H	0.532103	0.466861	0.481873
	H299	H	0.505267	0.467891	0.506433
	O300	O	0.360499	0.309965	0.559425
	H301	H	0.370054	0.326050	0.538681
	H302	H	0.348229	0.299094	0.545962
	O303	O	0.534045	0.464684	0.513291
	H304	H	0.535571	0.465272	0.514625
	H305	H	0.538629	0.455567	0.508839
	O306	O	0.636820	0.569781	0.479992
	H307	H	0.637698	0.567359	0.478014
	H308	H	0.642124	0.574865	0.489470
	O309	O	0.636457	0.525835	0.590535
	H310	H	0.636766	0.517840	0.593295
	H311	H	0.635533	0.522858	0.590536
	O312	O	0.065330	0.114189	0.154800
	H313	H	0.071327	0.123524	0.162598
	H314	H	0.062478	0.116824	0.152790
	O315	O	0.437963	0.530459	0.625638
	H316	H	0.443085	0.528182	0.626961
	H317	H	0.435198	0.532625	0.637762
	O318	O	0.045457	0.809939	0.988575
	H319	H	0.063426	0.813395	0.985887
	H320	H	0.055311	0.806690	0.980648
	O321	O	0.319843	0.526051	0.310636
	H322	H	0.302109	0.533764	0.300344
	H323	H	0.313835	0.535716	0.304523
	O324	O	-0.027986	1.031173	-0.007288
	H325	H	-0.027505	1.035891	0.010373
	H326	H	-0.033129	1.031166	-0.010634
	O327	O	0.576657	0.474977	0.654658
	H328	H	0.574524	0.460091	0.659903
	H329	H	0.567595	0.467256	0.642544
	O330	O	0.639882	-0.591622	1.500207
	H331	H	0.635323	-0.600313	1.501273
	H332	H	0.622903	-0.568390	1.499352
	O333	O	0.008461	-0.159840	0.916003
	H334	H	0.000437	-0.158093	0.920345
	H335	H	0.011936	-0.152212	0.900805
	O336	O	0.433232	0.566251	0.474815
	H337	H	0.419951	0.571667	0.477984
	H338	H	0.442326	0.566782	0.478266
	O339	O	0.480871	-0.468433	0.644601
	H340	H	0.490589	-0.469832	0.642824
	H341	H	0.494692	-0.476544	0.638681
	O342	O	-0.084828	0.099888	-0.107087
	H343	H	-0.074781	0.097621	-0.112282
	H344	H	-0.091327	0.099226	-0.093946
	O345	O	0.873656	-0.098776	1.044376
	H346	H	0.877770	-0.097071	1.055839
	H347	H	0.877136	-0.101446	1.055166
	O348	O	1.070209	1.116743	-0.087618
	H349	H	1.064406	1.109524	-0.091873
	H350	H	1.051601	1.118627	-0.095225
	O351	O	0.604574	0.609475	0.636497
	H352	H	0.604195	0.615450	0.643538
	H353	H	0.615667	0.612693	0.639401
	O354	O	1.183752	0.133885	1.037356
	H355	H	1.195209	0.140528	1.030284
	H356	H	1.175344	0.131461	1.024341
	O357	O	0.526357	0.435048	0.469178
	H358	H	0.524496	0.431759	0.458723
	H359	H	0.533693	0.439186	0.452007
	O360	O	0.412561	0.436040	0.529267
	H361	H	0.402597	0.445035	0.533604
	H362	H	0.404187	0.436878	0.534265
	O363	O	-0.137436	0.973827	1.115469
	H364	H	-0.140955	0.962461	1.111993
	H365	H	-0.127900	0.975479	1.116555
	O366	O	0.480304	0.371094	0.491689
	H367	H	0.487891	0.376105	0.487711
	H368	H	0.481752	0.370626	0.484257
	O369	O	0.164310	0.973746	0.138599
	H370	H	0.162321	0.999111	0.136254
	H371	H	0.160231	0.980233	0.147844
	O372	O	1.325932	0.670625	0.646952
	H373	H	1.337245	0.672631	0.663130
	H374	H	1.336312	0.675532	0.651188
	O375	O	0.923601	-0.101992	-0.062033
	H376	H	0.928289	-0.098568	-0.062373
	H377	H	0.910380	-0.103585	-0.072663
	O378	O	0.899157	1.114913	-0.002807
	H379	H	0.885994	1.129217	-0.010001
	H380	H	0.877395	1.106740	0.003890
	O381	O	1.067822	-0.144896	-0.028356
	H382	H	1.068320	-0.148199	-0.020647
	H383	H	1.065886	-0.146426	-0.022369
	O384	O	1.154562	1.041734	0.121560
	H385	H	1.165773	1.044720	0.145991
	H386	H	1.152581	1.065072	0.099385
	O387	O	-0.056030	0.068065	-0.023240
	H388	H	-0.062057	0.077781	-0.031249
	H389	H	-0.062931	0.063912	-0.021043
	O390	O	-0.201131	1.183293	-0.046125
	H391	H	-0.204300	1.198747	-0.048375
	H392	H	-0.204222	1.187465	-0.044739
	O393	O	1.122247	0.853590	0.981533
	H394	H	1.133147	0.866225	0.981575
	H395	H	1.124678	0.851284	0.968332
	O396	O	0.573115	0.497697	0.488224
	H397	H	0.567492	0.501367	0.487226
	H398	H	0.576948	0.495543	0.484523
	O399	O	-0.116653	1.050587	0.864932
	H400	H	-0.107469	1.049027	0.869111
	H401	H	-0.117442	1.057552	0.849692
	O402	O	0.338741	0.511124	0.655708
	H403	H	0.346488	0.497993	0.667036
	H404	H	0.346977	0.511356	0.660997
	O405	O	0.975644	1.137904	0.081653
	H406	H	0.973864	1.144012	0.085384
	H407	H	0.962335	1.143029	0.073002
	O408	O	0.815999	0.925055	0.032894
	H409	H	0.818779	0.919895	0.024333
	H410	H	0.811148	0.925042	0.057617
	O411	O	1.117896	-0.163894	1.028800
	H412	H	1.125076	-0.158545	1.033607
	H413	H	1.113048	-0.158657	1.024786
	O414	O	0.375598	0.653474	0.405661
	H415	H	0.370302	0.655479	0.417633
	H416	H	0.371537	0.653039	0.410890
	O417	O	0.326284	0.473170	0.498099
	H418	H	0.306116	0.470544	0.487325
	H419	H	0.324505	0.477850	0.515870
