data_Molecule from HDF5

_cell_length_a		16.311839
_cell_length_b		16.307533
_cell_length_c		16.234913
_cell_angle_alpha	90.322544
_cell_angle_beta	90.200512
_cell_angle_gamma	89.940928
_symmetry_space_group_name_H-M	'P 1'
_symmetry_Int_Tables_number		1

loop_
	_symmetry_equiv_pos_as_xyz
	x,y,z

loop_
	_atom_site_label
	_atom_site_type_symbol
	_atom_site_fract_x
	_atom_site_fract_y
	_atom_site_fract_z
	H0	H	0.395911	0.835561	0.720065
	H1	H	0.603668	0.156399	0.727895
	H2	H	0.602676	0.836613	0.286237
	H3	H	0.394523	0.158387	0.286495
	H4	H	0.719106	0.392794	0.843394
	H5	H	0.720337	0.602056	0.167126
	H6	H	0.280810	0.597447	0.842823
	H7	H	0.282728	0.395173	0.167520
	H8	H	0.839327	0.718182	0.400344
	H9	H	0.161694	0.717139	0.609558
	H10	H	0.840738	0.280158	0.611780
	H11	H	0.162464	0.280574	0.405545
	H12	H	0.838650	0.398430	0.721219
	H13	H	0.161083	0.601594	0.725980
	H14	H	0.841305	0.602321	0.284420
	H15	H	0.162937	0.394963	0.290310
	H16	H	0.395668	0.712649	0.841706
	H17	H	0.605364	0.719582	0.165445
	H18	H	0.600942	0.277577	0.842891
	H19	H	0.396711	0.278466	0.167399
	H20	H	0.720703	0.837886	0.400603
	H21	H	0.719296	0.159172	0.612507
	H22	H	0.277877	0.839020	0.611389
	H23	H	0.281222	0.158858	0.402465
	H24	H	0.903315	0.334769	0.220140
	H25	H	0.105330	0.658793	0.224661
	H26	H	0.098367	0.335593	0.789140
	H27	H	0.897230	0.659932	0.790569
	H28	H	0.217194	0.895475	0.344837
	H29	H	0.222308	0.104173	0.667344
	H30	H	0.780907	0.103209	0.344238
	H31	H	0.783489	0.899556	0.668231
	H32	H	0.339048	0.215558	0.899450
	H33	H	0.660506	0.213868	0.108614
	H34	H	0.338223	0.778747	0.105776
	H35	H	0.660997	0.777453	0.901272
	H36	H	0.337650	0.895094	0.221592
	H37	H	0.658795	0.101570	0.224444
	H38	H	0.337396	0.095244	0.787646
	H39	H	0.660769	0.892593	0.786915
	H40	H	0.899882	0.216533	0.343458
	H41	H	0.102996	0.217454	0.669883
	H42	H	0.102337	0.780028	0.345134
	H43	H	0.895953	0.780807	0.667538
	H44	H	0.215853	0.334929	0.903330
	H45	H	0.218589	0.658877	0.107168
	H46	H	0.783362	0.335976	0.109515
	H47	H	0.781245	0.658760	0.904580
	H48	H	0.413929	0.109919	0.592885
	H49	H	0.593102	0.883217	0.588386
	H50	H	0.587900	0.111896	0.418372
	H51	H	0.409292	0.882504	0.412224
	H52	H	0.594126	0.401155	0.123347
	H53	H	0.590296	0.575840	0.893795
	H54	H	0.413111	0.592730	0.120724
	H55	H	0.402840	0.404623	0.888115
	H56	H	0.108362	0.576177	0.423976
	H57	H	0.885141	0.590127	0.597264
	H58	H	0.119217	0.397181	0.594157
	H59	H	0.887233	0.408758	0.420288
	H60	H	0.111304	0.417053	0.589679
	H61	H	0.883992	0.591723	0.598185
	H62	H	0.120798	0.589512	0.401916
	H63	H	0.886092	0.412965	0.411232
	H64	H	0.405539	0.588874	0.120993
	H65	H	0.582733	0.588814	0.890947
	H66	H	0.594833	0.411428	0.121353
	H67	H	0.410468	0.410628	0.892165
	H68	H	0.593632	0.114123	0.415437
	H69	H	0.596118	0.880635	0.596222
	H70	H	0.408666	0.113202	0.594691
	H71	H	0.409715	0.883039	0.415751
	H72	H	0.914275	0.610366	0.092837
	H73	H	0.086297	0.382833	0.098326
	H74	H	0.078444	0.607458	0.921507
	H75	H	0.909165	0.380395	0.909506
	H76	H	0.089040	0.918028	0.619568
	H77	H	0.096879	0.093513	0.389034
	H78	H	0.903816	0.085970	0.622303
	H79	H	0.912222	0.910499	0.391275
	H80	H	0.614584	0.083315	0.912905
	H81	H	0.380435	0.089937	0.101597
	H82	H	0.613740	0.911024	0.095906
	H83	H	0.382463	0.902808	0.911203
	H84	H	0.615490	0.904977	0.096841
	H85	H	0.383867	0.092521	0.087143
	H86	H	0.616250	0.089534	0.914792
	H87	H	0.384944	0.904596	0.914133
	H88	H	0.916374	0.088245	0.618630
	H89	H	0.090727	0.082096	0.393271
	H90	H	0.084040	0.905045	0.622605
	H91	H	0.911363	0.905265	0.390551
	H92	H	0.103518	0.613774	0.925921
	H93	H	0.095304	0.382263	0.091187
	H94	H	0.906228	0.613208	0.094596
	H95	H	0.913801	0.384383	0.914967
	H96	H	0.413530	0.113067	0.598428
	H97	H	0.587330	0.883548	0.595126
	H98	H	0.587984	0.113224	0.412303
	H99	H	0.407618	0.882507	0.414669
	H100	H	0.585498	0.405611	0.118906
	H101	H	0.596231	0.587671	0.886797
	H102	H	0.412430	0.584721	0.118501
	H103	H	0.412238	0.400622	0.889046
	H104	H	0.117348	0.603542	0.426600
	H105	H	0.884817	0.591608	0.596577
	H106	H	0.119403	0.411523	0.609454
	H107	H	0.883771	0.403029	0.412831
	H108	H	0.912803	0.613839	0.100444
	H109	H	0.096367	0.378665	0.102722
	H110	H	0.093084	0.617107	0.903047
	H111	H	0.906258	0.383032	0.917081
	H112	H	0.097233	0.908296	0.625651
	H113	H	0.083737	0.094145	0.392279
	H114	H	0.909450	0.097852	0.624942
	H115	H	0.907387	0.909158	0.389155
	H116	H	0.612259	0.084815	0.919152
	H117	H	0.386203	0.078958	0.093138
	H118	H	0.613792	0.906261	0.090825
	H119	H	0.383949	0.906073	0.910619
	C120	C	0.379575	0.006167	0.626181
	C121	C	0.622454	0.988822	0.626729
	C122	C	0.621767	0.007057	0.383162
	C123	C	0.377730	0.988822	0.383351
	C124	C	0.622079	0.374545	0.013977
	C125	C	0.621745	0.617636	0.996812
	C126	C	0.378717	0.618324	0.013124
	C127	C	0.378373	0.375032	0.996733
	C128	C	0.009247	0.620678	0.384748
	C129	C	0.991218	0.621610	0.628738
	C130	C	0.009573	0.378450	0.627758
	C131	C	0.992392	0.376968	0.385005
	C132	C	0.880581	0.505761	0.126993
	C133	C	0.123130	0.488319	0.127827
	C134	C	0.121351	0.505989	0.885148
	C135	C	0.878583	0.489231	0.884475
	C136	C	0.120900	0.878513	0.515492
	C137	C	0.121879	0.120925	0.498493
	C138	C	0.878918	0.121578	0.514825
	C139	C	0.879208	0.877898	0.497245
	C140	C	0.507924	0.116688	0.883493
	C141	C	0.489963	0.118170	0.126016
	C142	C	0.507778	0.876334	0.125259
	C143	C	0.490553	0.873686	0.881375
	C144	C	0.377577	0.884354	0.682595
	C145	C	0.623008	0.108731	0.687959
	C146	C	0.622112	0.885399	0.324753
	C147	C	0.376292	0.110020	0.325412
	C148	C	0.680064	0.373577	0.892031
	C149	C	0.680664	0.620268	0.118629
	C150	C	0.320081	0.617230	0.891171
	C151	C	0.321143	0.375544	0.118998
	C152	C	0.888142	0.678870	0.382174
	C153	C	0.113125	0.678739	0.629020
	C154	C	0.888402	0.319889	0.629259
	C155	C	0.114067	0.319086	0.385880
	C156	C	0.887514	0.378738	0.684061
	C157	C	0.112787	0.621139	0.686973
	C158	C	0.889015	0.621117	0.324334
	C159	C	0.114313	0.376252	0.328517
	C160	C	0.377525	0.674539	0.890646
	C161	C	0.623706	0.678901	0.117590
	C162	C	0.621119	0.316469	0.891760
	C163	C	0.377956	0.317364	0.118752
	C164	C	0.680979	0.886029	0.381679
	C165	C	0.680191	0.110341	0.630080
	C166	C	0.318678	0.886022	0.628353
	C167	C	0.319514	0.110275	0.383174
	C168	C	0.882378	0.383890	0.183059
	C169	C	0.123973	0.610268	0.185507
	C170	C	0.119445	0.384254	0.827197
	C171	C	0.878206	0.611290	0.828549
	C172	C	0.178278	0.877106	0.393465
	C173	C	0.181482	0.122330	0.619623
	C174	C	0.820367	0.122135	0.392833
	C175	C	0.821496	0.878954	0.619552
	C176	C	0.387100	0.175849	0.881376
	C177	C	0.611553	0.175917	0.127625
	C178	C	0.386300	0.818271	0.124660
	C179	C	0.612215	0.815809	0.881702
	C180	C	0.386057	0.875778	0.182709
	C181	C	0.610681	0.119747	0.185347
	C182	C	0.386205	0.115798	0.825755
	C183	C	0.612315	0.873310	0.824988
	C184	C	0.879808	0.178323	0.392309
	C185	C	0.122251	0.178722	0.620888
	C186	C	0.121161	0.819435	0.393694
	C187	C	0.877446	0.819990	0.619092
	C188	C	0.177165	0.383575	0.884538
	C189	C	0.180249	0.610428	0.127032
	C190	C	0.822731	0.384470	0.127615
	C191	C	0.820221	0.610741	0.885041
	C192	C	0.404665	0.090118	0.602195
	C193	C	0.599061	0.904289	0.600609
	C194	C	0.597106	0.091214	0.407943
	C195	C	0.401955	0.904635	0.407331
	C196	C	0.598526	0.399042	0.099085
	C197	C	0.597019	0.591677	0.912507
	C198	C	0.403301	0.595333	0.098066
	C199	C	0.401577	0.398339	0.911786
	C200	C	0.093500	0.596681	0.410094
	C201	C	0.906512	0.598128	0.604508
	C202	C	0.094455	0.401889	0.604513
	C203	C	0.907756	0.401347	0.408125
	C204	C	0.904162	0.590455	0.103012
	C205	C	0.099795	0.403363	0.104257
	C206	C	0.098405	0.590938	0.909825
	C207	C	0.902709	0.404532	0.907254
	C208	C	0.097144	0.903469	0.600551
	C209	C	0.097427	0.096922	0.413384
	C210	C	0.902807	0.097718	0.599861
	C211	C	0.903258	0.901489	0.412430
	C212	C	0.592500	0.092657	0.908295
	C213	C	0.405282	0.094174	0.101036
	C214	C	0.592296	0.900503	0.101710
	C215	C	0.405884	0.897577	0.904958
	Zn216	Zn	0.499294	-0.004921	0.753835
	Zn217	Zn	0.498371	-0.002327	0.254531
	Zn218	Zn	0.751096	0.496819	0.005783
	Zn219	Zn	0.250303	0.496624	0.005868
	Zn220	Zn	0.000084	0.749694	0.506765
	Zn221	Zn	0.000793	0.250142	0.507241
	Zn222	Zn	-0.000551	0.498502	0.756059
	Zn223	Zn	0.002350	0.497961	0.256342
	Zn224	Zn	0.499863	0.746561	0.003491
	Zn225	Zn	0.499615	0.246117	0.005936
	Zn226	Zn	0.750749	-0.000621	0.505450
	Zn227	Zn	0.250683	-0.001380	0.506436
	N228	N	0.414972	0.959918	0.681517
	N229	N	0.588026	0.032101	0.686088
	N230	N	0.585947	0.961726	0.325512
	N231	N	0.411702	0.033639	0.325212
	N232	N	0.680638	0.409193	0.969104
	N233	N	0.679484	0.582820	0.042566
	N234	N	0.320393	0.583024	0.968459
	N235	N	0.321255	0.410816	0.042279
	N236	N	0.963835	0.678451	0.419272
	N237	N	0.036437	0.679380	0.593792
	N238	N	0.965235	0.319548	0.594905
	N239	N	0.037200	0.319385	0.420432
	N240	N	0.963797	0.414567	0.683239
	N241	N	0.035927	0.586451	0.687043
	N242	N	0.965529	0.585687	0.325782
	N243	N	0.037819	0.411766	0.327874
	N244	N	0.413292	0.675388	0.967441
	N245	N	0.587495	0.677142	0.040982
	N246	N	0.585776	0.317131	0.968501
	N247	N	0.412923	0.316982	0.041852
	N248	N	0.681045	0.962686	0.417208
	N249	N	0.679785	0.034584	0.592502
	N250	N	0.319807	0.962593	0.593873
	N251	N	0.320197	0.033932	0.418672
	N252	N	0.917303	0.460589	0.183009
	N253	N	0.089545	0.533356	0.186306
	N254	N	0.085555	0.461512	0.827451
	N255	N	0.913914	0.534781	0.828163
	N256	N	0.177994	0.913432	0.470257
	N257	N	0.180947	0.086915	0.542650
	N258	N	0.819378	0.087972	0.470220
	N259	N	0.822548	0.914408	0.542888
	N260	N	0.463893	0.176710	0.916443
	N261	N	0.535283	0.175094	0.091584
	N262	N	0.463033	0.818133	0.089980
	N263	N	0.535494	0.815951	0.916130
	N264	N	0.462730	0.910735	0.183587
	N265	N	0.533945	0.084723	0.184934
	N266	N	0.462453	0.079812	0.826851
	N267	N	0.535547	0.908337	0.824577
	N268	N	0.915139	0.178304	0.469281
	N269	N	0.085984	0.177961	0.544357
	N270	N	0.086206	0.820223	0.470677
	N271	N	0.912453	0.819156	0.542012
	N272	N	0.178746	0.460483	0.919482
	N273	N	0.180141	0.533482	0.092180
	N274	N	0.821390	0.461511	0.093604
	N275	N	0.820290	0.533915	0.919145
	O276	O	0.380248	0.436781	0.442343
	H277	H	0.383587	0.441846	0.427472
	H278	H	0.379134	0.440140	0.454067
	O279	O	0.069006	-0.141124	-0.137727
	H280	H	0.066898	-0.161596	-0.141394
	H281	H	0.072549	-0.142707	-0.122040
	O282	O	1.078824	-0.108572	0.979602
	H283	H	1.082137	-0.093558	0.990888
	H284	H	1.083903	-0.114780	0.980024
	O285	O	0.393989	0.409922	0.592261
	H286	H	0.385519	0.411485	0.591986
	H287	H	0.384744	0.420936	0.586355
	O288	O	0.814529	0.990419	1.039398
	H289	H	0.798379	0.990408	1.028563
	H290	H	0.817546	0.984145	1.025868
	O291	O	0.067691	1.124596	-0.070424
	H292	H	0.066934	1.130675	-0.067168
	H293	H	0.061616	1.121078	-0.072521
	O294	O	0.438696	0.509471	0.318212
	H295	H	0.438602	0.504201	0.328229
	H296	H	0.417729	0.512249	0.296183
	O297	O	0.330808	0.447292	0.656723
	H298	H	0.326142	0.447161	0.656343
	H299	H	0.338129	0.452527	0.662664
	O300	O	0.559532	0.610539	0.647309
	H301	H	0.554666	0.589824	0.641044
	H302	H	0.574244	0.619051	0.626291
	O303	O	0.448045	0.449650	0.548394
	H304	H	0.436666	0.454955	0.560606
	H305	H	0.469664	0.435299	0.535224
	O306	O	0.454659	0.462371	0.628426
	H307	H	0.451150	0.480252	0.621983
	H308	H	0.470213	0.475371	0.639534
	O309	O	0.360553	0.590487	0.545661
	H310	H	0.357677	0.602607	0.527150
	H311	H	0.359343	0.609194	0.554905
	O312	O	-0.074764	-0.003108	0.080248
	H313	H	-0.080477	0.001690	0.092535
	H314	H	-0.084715	0.002655	0.081077
	O315	O	0.690523	0.695983	0.530159
	H316	H	0.708226	0.689483	0.522351
	H317	H	0.707918	0.680522	0.516871
	O318	O	-0.330026	1.302751	0.529875
	H319	H	-0.355671	1.307574	0.534458
	H320	H	-0.323013	1.286446	0.532028
	O321	O	0.595121	0.392567	0.577690
	H322	H	0.585739	0.373122	0.569507
	H323	H	0.569108	0.391858	0.584927
	O324	O	-0.015004	0.846653	0.095692
	H325	H	-0.026914	0.849304	0.087223
	H326	H	-0.011075	0.856012	0.086427
	O327	O	0.565376	0.403619	0.502818
	H328	H	0.549590	0.407826	0.488729
	H329	H	0.565614	0.396484	0.516757
	O330	O	0.382050	-0.670792	1.493436
	H331	H	0.376674	-0.659158	1.477177
	H332	H	0.388121	-0.659451	1.503581
	O333	O	-0.030887	-0.090189	1.122051
	H334	H	-0.021365	-0.081824	1.125834
	H335	H	-0.043069	-0.087672	1.104458
	O336	O	0.453873	0.327904	0.698218
	H337	H	0.438535	0.336053	0.700832
	H338	H	0.446428	0.319071	0.716141
	O339	O	0.480109	-0.293026	0.307496
	H340	H	0.488621	-0.272313	0.309999
	H341	H	0.443934	-0.286611	0.306101
	O342	O	-0.073977	0.035597	-0.170143
	H343	H	-0.077762	0.038648	-0.168248
	H344	H	-0.062547	0.027017	-0.173923
	O345	O	1.063327	-0.013083	0.880949
	H346	H	1.073713	-0.016852	0.879266
	H347	H	1.062622	-0.018652	0.874407
	O348	O	0.985319	1.035236	0.118483
	H349	H	0.981124	1.031176	0.116450
	H350	H	0.974941	1.042361	0.117585
	O351	O	0.596162	0.388245	0.336955
	H352	H	0.593333	0.398736	0.329725
	H353	H	0.603915	0.366965	0.322387
	O354	O	1.023425	0.115891	0.897125
	H355	H	1.019590	0.103976	0.894256
	H356	H	1.015458	0.114320	0.892900
	O357	O	0.416353	0.599551	0.459762
	H358	H	0.420636	0.600350	0.456905
	H359	H	0.429899	0.595783	0.473789
	O360	O	0.523197	0.707943	0.653824
	H361	H	0.560727	0.704754	0.651040
	H362	H	0.535447	0.729121	0.664907
	O363	O	0.048326	0.861366	0.929035
	H364	H	0.058513	0.873539	0.921104
	H365	H	0.055233	0.862511	0.939937
	O366	O	0.319044	0.675786	0.383698
	H367	H	0.324520	0.657812	0.394038
	H368	H	0.320459	0.686013	0.381798
	O369	O	0.121254	1.034108	0.001019
	H370	H	0.110279	1.036024	0.001079
	H371	H	0.112982	1.035422	0.004920
	O372	O	1.498394	0.570660	0.385313
	H373	H	1.506644	0.576549	0.400923
	H374	H	1.491704	0.566437	0.371884
	O375	O	1.001317	0.056309	0.007688
	H376	H	1.002385	0.062775	0.008997
	H377	H	0.992303	0.065815	0.000409
	O378	O	0.932697	1.143309	0.016201
	H379	H	0.932607	1.156146	0.024779
	H380	H	0.929079	1.134674	0.014032
	O381	O	0.909941	0.041222	0.087849
	H382	H	0.902372	0.020773	0.073682
	H383	H	0.898366	0.043778	0.088785
	O384	O	1.120039	1.130000	0.101616
	H385	H	1.129973	1.141195	0.108130
	H386	H	1.123797	1.123798	0.092727
	O387	O	-0.062553	-0.036826	-0.011520
	H388	H	-0.062101	-0.026254	-0.006476
	H389	H	-0.063729	-0.031956	-0.010797
	O390	O	0.117667	0.939152	0.024637
	H391	H	0.112036	0.946838	0.037828
	H392	H	0.130314	0.929213	0.025500
	O393	O	1.050193	1.030587	1.117725
	H394	H	1.039063	1.036373	1.122506
	H395	H	1.044830	1.038034	1.116570
	O396	O	0.687765	0.503594	0.665574
	H397	H	0.664036	0.492194	0.655822
	H398	H	0.704583	0.498455	0.654669
	O399	O	-0.050894	0.950154	1.126560
	H400	H	-0.039136	0.946952	1.122645
	H401	H	-0.044829	0.938528	1.138550
	O402	O	0.366612	0.551073	0.387440
	H403	H	0.351889	0.558048	0.386746
	H404	H	0.375756	0.559174	0.401912
	O405	O	0.910399	0.991509	0.048683
	H406	H	0.903225	0.993476	0.055874
	H407	H	0.924282	0.991068	0.051915
	O408	O	0.442095	1.548182	0.477613
	H409	H	0.465150	1.547211	0.464305
	H410	H	0.450827	1.557884	0.502508
	O411	O	0.689826	-0.701786	0.377901
	H412	H	0.688277	-0.674380	0.388277
	H413	H	0.692060	-0.718604	0.397344
	O414	O	0.684095	0.593683	0.539691
	H415	H	0.680741	0.581998	0.518754
	H416	H	0.688154	0.562787	0.550691
	O417	O	0.701005	0.433137	0.310379
	H418	H	0.690793	0.437263	0.295524
	H419	H	0.707859	0.429011	0.311029
