data_Molecule from HDF5

_cell_length_a		16.193771
_cell_length_b		16.216812
_cell_length_c		16.290871
_cell_angle_alpha	89.892465
_cell_angle_beta	89.860978
_cell_angle_gamma	89.901205
_symmetry_space_group_name_H-M	'P 1'
_symmetry_Int_Tables_number		1

loop_
	_symmetry_equiv_pos_as_xyz
	x,y,z

loop_
	_atom_site_label
	_atom_site_type_symbol
	_atom_site_fract_x
	_atom_site_fract_y
	_atom_site_fract_z
	H0	H	0.397783	0.836202	0.710351
	H1	H	0.595235	0.163881	0.707672
	H2	H	0.597784	0.836064	0.280361
	H3	H	0.399122	0.165024	0.280822
	H4	H	0.711007	0.403661	0.830405
	H5	H	0.711688	0.598181	0.158413
	H6	H	0.284368	0.599493	0.830267
	H7	H	0.282707	0.403309	0.158740
	H8	H	0.832857	0.713727	0.398714
	H9	H	0.163007	0.710698	0.590577
	H10	H	0.832884	0.287423	0.592026
	H11	H	0.162408	0.285274	0.396591
	H12	H	0.833699	0.399605	0.710041
	H13	H	0.162433	0.597612	0.708347
	H14	H	0.832453	0.598668	0.281903
	H15	H	0.162318	0.399652	0.279555
	H16	H	0.400817	0.714418	0.830786
	H17	H	0.595519	0.714215	0.158579
	H18	H	0.596186	0.286866	0.831286
	H19	H	0.399327	0.287343	0.159234
	H20	H	0.710893	0.834366	0.398032
	H21	H	0.711101	0.163664	0.592169
	H22	H	0.284101	0.835332	0.593629
	H23	H	0.282771	0.163970	0.395837
	H24	H	0.898749	0.335738	0.209804
	H25	H	0.095257	0.664577	0.208527
	H26	H	0.095937	0.335161	0.782208
	H27	H	0.898748	0.662997	0.779296
	H28	H	0.212556	0.901923	0.331203
	H29	H	0.210810	0.096904	0.659321
	H30	H	0.785219	0.096487	0.330479
	H31	H	0.783267	0.901921	0.658719
	H32	H	0.332929	0.214794	0.896759
	H33	H	0.662940	0.212865	0.091379
	H34	H	0.331797	0.788734	0.091444
	H35	H	0.662142	0.787154	0.897044
	H36	H	0.332875	0.902031	0.210499
	H37	H	0.662274	0.098681	0.208600
	H38	H	0.333388	0.099936	0.780342
	H39	H	0.661662	0.901977	0.780357
	H40	H	0.901194	0.214090	0.330870
	H41	H	0.095325	0.212738	0.659135
	H42	H	0.096198	0.785607	0.330865
	H43	H	0.900837	0.786229	0.659357
	H44	H	0.211247	0.335452	0.898337
	H45	H	0.208527	0.666040	0.090660
	H46	H	0.784611	0.335992	0.091947
	H47	H	0.785171	0.664807	0.896942
	H48	H	0.409980	0.119164	0.598844
	H49	H	0.595354	0.881101	0.587080
	H50	H	0.598742	0.117228	0.407170
	H51	H	0.415516	0.885203	0.399101
	H52	H	0.594843	0.406342	0.112385
	H53	H	0.594508	0.600226	0.874832
	H54	H	0.405804	0.588675	0.108847
	H55	H	0.405058	0.410503	0.878946
	H56	H	0.116558	0.598512	0.403620
	H57	H	0.878142	0.600521	0.588390
	H58	H	0.116168	0.404448	0.589498
	H59	H	0.882899	0.414636	0.403271
	H60	H	0.114893	0.405971	0.585806
	H61	H	0.882563	0.588971	0.582325
	H62	H	0.111752	0.585840	0.404711
	H63	H	0.877688	0.405270	0.394575
	H64	H	0.407557	0.600185	0.111910
	H65	H	0.595276	0.588489	0.879026
	H66	H	0.590255	0.409128	0.110710
	H67	H	0.407557	0.406004	0.878422
	H68	H	0.593316	0.120587	0.392009
	H69	H	0.588867	0.880944	0.592462
	H70	H	0.411813	0.112008	0.578580
	H71	H	0.403375	0.885420	0.411026
	H72	H	0.902594	0.617326	0.084608
	H73	H	0.087267	0.383149	0.091878
	H74	H	0.096733	0.620347	0.895081
	H75	H	0.901738	0.380967	0.902106
	H76	H	0.102565	0.906765	0.614554
	H77	H	0.088896	0.097234	0.376801
	H78	H	0.901944	0.093993	0.612776
	H79	H	0.904624	0.910965	0.379181
	H80	H	0.614389	0.091998	0.899982
	H81	H	0.379969	0.094455	0.087970
	H82	H	0.611313	0.915984	0.087443
	H83	H	0.377202	0.899603	0.901720
	H84	H	0.617825	0.903534	0.095441
	H85	H	0.381394	0.092947	0.087101
	H86	H	0.615528	0.094632	0.900099
	H87	H	0.382757	0.911705	0.908003
	H88	H	0.903889	0.091293	0.610887
	H89	H	0.096344	0.090630	0.377290
	H90	H	0.085308	0.912672	0.607904
	H91	H	0.909114	0.903226	0.378557
	H92	H	0.083347	0.616659	0.895779
	H93	H	0.089364	0.384662	0.083261
	H94	H	0.901240	0.619572	0.092359
	H95	H	0.906185	0.381649	0.898817
	H96	H	0.392903	0.120422	0.585337
	H97	H	0.587055	0.884088	0.584967
	H98	H	0.583023	0.114591	0.403391
	H99	H	0.399681	0.879347	0.395706
	H100	H	0.590001	0.403932	0.112588
	H101	H	0.584701	0.594781	0.879871
	H102	H	0.396492	0.594704	0.114358
	H103	H	0.402371	0.406307	0.877054
	H104	H	0.116499	0.590711	0.393578
	H105	H	0.879175	0.588781	0.594979
	H106	H	0.115267	0.408212	0.589531
	H107	H	0.880438	0.401993	0.407727
	H108	H	0.908906	0.616722	0.090211
	H109	H	0.095057	0.381953	0.088776
	H110	H	0.090794	0.616649	0.907104
	H111	H	0.907059	0.384153	0.904191
	H112	H	0.087768	0.894584	0.613617
	H113	H	0.087589	0.088252	0.381031
	H114	H	0.904972	0.094438	0.611684
	H115	H	0.899708	0.903558	0.376596
	H116	H	0.614825	0.092741	0.902368
	H117	H	0.380019	0.092927	0.088726
	H118	H	0.614005	0.902002	0.080997
	H119	H	0.378191	0.912067	0.893969
	C120	C	0.376436	0.008406	0.616293
	C121	C	0.618797	0.990718	0.616163
	C122	C	0.620081	0.008310	0.372748
	C123	C	0.376954	0.991987	0.373745
	C124	C	0.619927	0.378496	0.003439
	C125	C	0.619527	0.622461	0.986198
	C126	C	0.375664	0.622460	0.002970
	C127	C	0.376406	0.379423	0.986571
	C128	C	0.005985	0.620850	0.373067
	C129	C	0.989225	0.620299	0.615931
	C130	C	0.006446	0.377968	0.616602
	C131	C	0.989461	0.378509	0.373388
	C132	C	0.876415	0.509076	0.116665
	C133	C	0.118839	0.492189	0.116062
	C134	C	0.119056	0.508689	0.872634
	C135	C	0.876525	0.490852	0.873302
	C136	C	0.120212	0.877028	0.503211
	C137	C	0.119430	0.120927	0.486849
	C138	C	0.875796	0.121559	0.503349
	C139	C	0.876240	0.878091	0.486193
	C140	C	0.506283	0.122130	0.872607
	C141	C	0.489333	0.121433	0.115921
	C142	C	0.505895	0.878852	0.116729
	C143	C	0.488828	0.879350	0.873298
	C144	C	0.377852	0.885051	0.672152
	C145	C	0.616144	0.114738	0.670373
	C146	C	0.617711	0.884927	0.318159
	C147	C	0.378819	0.115911	0.318729
	C148	C	0.674375	0.382075	0.879783
	C149	C	0.673846	0.619055	0.109679
	C150	C	0.321962	0.619647	0.879192
	C151	C	0.321381	0.382897	0.109989
	C152	C	0.881858	0.675806	0.377562
	C153	C	0.113643	0.674189	0.611990
	C154	C	0.882139	0.324151	0.613317
	C155	C	0.113386	0.323257	0.376194
	C156	C	0.882654	0.380148	0.671695
	C157	C	0.113308	0.617701	0.670337
	C158	C	0.881768	0.619084	0.319183
	C159	C	0.113375	0.380166	0.318043
	C160	C	0.379537	0.677024	0.879507
	C161	C	0.616224	0.676665	0.109776
	C162	C	0.617213	0.324178	0.880058
	C163	C	0.379014	0.325044	0.110213
	C164	C	0.673949	0.883999	0.376491
	C165	C	0.673421	0.114719	0.612838
	C166	C	0.321802	0.884506	0.613841
	C167	C	0.321230	0.115336	0.376034
	C168	C	0.879100	0.384691	0.171326
	C169	C	0.115724	0.615716	0.170742
	C170	C	0.116840	0.384321	0.819019
	C171	C	0.878466	0.614492	0.817652
	C172	C	0.174958	0.880745	0.379922
	C173	C	0.173669	0.117785	0.610193
	C174	C	0.822085	0.118171	0.379375
	C175	C	0.821332	0.880833	0.610024
	C176	C	0.382238	0.177266	0.875905
	C177	C	0.613622	0.175739	0.112344
	C178	C	0.381271	0.825430	0.113169
	C179	C	0.612843	0.824675	0.876251
	C180	C	0.381944	0.881825	0.171964
	C181	C	0.613380	0.118798	0.170271
	C182	C	0.382502	0.120358	0.817924
	C183	C	0.612892	0.881957	0.818686
	C184	C	0.879548	0.176527	0.379793
	C185	C	0.116387	0.175380	0.609982
	C186	C	0.117094	0.823102	0.379815
	C187	C	0.879541	0.823690	0.610200
	C188	C	0.174124	0.384787	0.876640
	C189	C	0.172349	0.616520	0.112297
	C190	C	0.822247	0.384769	0.113191
	C191	C	0.822083	0.615282	0.875921
	C192	C	0.398428	0.094822	0.594106
	C193	C	0.597012	0.904196	0.594604
	C194	C	0.598074	0.095063	0.394294
	C195	C	0.399540	0.905500	0.395575
	C196	C	0.598088	0.400002	0.089712
	C197	C	0.597772	0.600941	0.900192
	C198	C	0.396983	0.600800	0.089212
	C199	C	0.398577	0.401053	0.900406
	C200	C	0.092620	0.598493	0.394474
	C201	C	0.902263	0.598938	0.594976
	C202	C	0.093199	0.399779	0.594769
	C203	C	0.902926	0.400859	0.395256
	C204	C	0.897849	0.595418	0.095335
	C205	C	0.097198	0.405484	0.094286
	C206	C	0.096881	0.595467	0.893195
	C207	C	0.898450	0.404599	0.895189
	C208	C	0.098383	0.898400	0.589715
	C209	C	0.097506	0.098721	0.400543
	C210	C	0.897237	0.099681	0.589428
	C211	C	0.897910	0.899577	0.400405
	C212	C	0.592732	0.099728	0.894394
	C213	C	0.402854	0.099679	0.094422
	C214	C	0.592280	0.900549	0.094673
	C215	C	0.401758	0.901397	0.894930
	Zn216	Zn	0.497235	0.000089	0.744770
	Zn217	Zn	0.497728	0.000801	0.245135
	Zn218	Zn	0.748422	0.500316	-0.005316
	Zn219	Zn	0.247233	0.501360	-0.005744
	Zn220	Zn	-0.002131	0.749105	0.495170
	Zn221	Zn	-0.001827	0.250063	0.495478
	Zn222	Zn	-0.002196	0.499105	0.744486
	Zn223	Zn	-0.002456	0.499681	0.244994
	Zn224	Zn	0.497468	0.750730	-0.005299
	Zn225	Zn	0.497957	0.250071	-0.005171
	Zn226	Zn	0.747218	-0.000983	0.494534
	Zn227	Zn	0.248059	-0.000444	0.495049
	N228	N	0.411272	0.963055	0.673601
	N229	N	0.582682	0.036816	0.672407
	N230	N	0.584788	0.963285	0.315996
	N231	N	0.412868	0.038164	0.317250
	N232	N	0.676109	0.415380	0.957501
	N233	N	0.675902	0.585958	0.031929
	N234	N	0.319335	0.586625	0.957055
	N235	N	0.319400	0.415878	0.032164
	N236	N	0.960109	0.677147	0.410170
	N237	N	0.035496	0.675859	0.579025
	N238	N	0.960056	0.322813	0.579692
	N239	N	0.035521	0.322371	0.410131
	N240	N	0.961045	0.412907	0.673913
	N241	N	0.034990	0.584812	0.672831
	N242	N	0.960071	0.585552	0.316434
	N243	N	0.035242	0.413802	0.316263
	N244	N	0.412395	0.678727	0.957301
	N245	N	0.583135	0.678977	0.031988
	N246	N	0.583822	0.322093	0.957745
	N247	N	0.412623	0.322896	0.032310
	N248	N	0.675626	0.962038	0.409699
	N249	N	0.674959	0.036799	0.579543
	N250	N	0.320588	0.962264	0.579823
	N251	N	0.320011	0.037344	0.409616
	N252	N	0.911870	0.462971	0.173769
	N253	N	0.083294	0.537281	0.173286
	N254	N	0.083188	0.462321	0.816517
	N255	N	0.911714	0.536263	0.815824
	N256	N	0.176838	0.913464	0.457798
	N257	N	0.175614	0.084442	0.532484
	N258	N	0.819581	0.084763	0.457173
	N259	N	0.819204	0.913860	0.532188
	N260	N	0.460247	0.178563	0.909310
	N261	N	0.535593	0.177415	0.079191
	N262	N	0.459180	0.823466	0.079305
	N263	N	0.534534	0.823021	0.909473
	N264	N	0.460387	0.914310	0.174389
	N265	N	0.535199	0.085704	0.172510
	N266	N	0.460513	0.086775	0.815779
	N267	N	0.534568	0.915009	0.816704
	N268	N	0.912255	0.178628	0.457665
	N269	N	0.083292	0.177261	0.532283
	N270	N	0.083924	0.820818	0.457661
	N271	N	0.912935	0.821673	0.532399
	N272	N	0.175570	0.463037	0.909067
	N273	N	0.174203	0.538646	0.078900
	N274	N	0.820481	0.462775	0.079916
	N275	N	0.820702	0.537472	0.909740
	O276	O	0.457588	-0.526688	1.490543
	H277	H	0.456426	-0.529040	1.492902
	H278	H	0.452871	-0.527759	1.499993
	O279	O	0.475994	0.479694	0.461498
	H280	H	0.475325	0.479229	0.462512
	H281	H	0.473135	0.478868	0.462460
	O282	O	1.463706	1.509797	0.475249
	H283	H	1.465721	1.513042	0.469045
	H284	H	1.460774	1.504148	0.473079
	O285	O	0.454363	0.484349	0.511377
	H286	H	0.455675	0.490255	0.502867
	H287	H	0.449581	0.489604	0.514674
