data_Molecule from HDF5

_cell_length_a		16.356140
_cell_length_b		16.466244
_cell_length_c		16.425765
_cell_angle_alpha	89.944265
_cell_angle_beta	90.083114
_cell_angle_gamma	89.968174
_symmetry_space_group_name_H-M	'P 1'
_symmetry_Int_Tables_number		1

loop_
	_symmetry_equiv_pos_as_xyz
	x,y,z

loop_
	_atom_site_label
	_atom_site_type_symbol
	_atom_site_fract_x
	_atom_site_fract_y
	_atom_site_fract_z
	H0	H	0.387739	0.838682	0.741568
	H1	H	0.604139	0.152109	0.743312
	H2	H	0.601812	0.839888	0.295398
	H3	H	0.383672	0.152344	0.293293
	H4	H	0.715138	0.391897	0.859971
	H5	H	0.717703	0.601631	0.175703
	H6	H	0.272863	0.601819	0.859758
	H7	H	0.271148	0.388368	0.176005
	H8	H	0.838175	0.718074	0.411771
	H9	H	0.154153	0.717048	0.626573
	H10	H	0.836852	0.275586	0.621783
	H11	H	0.152274	0.270012	0.408466
	H12	H	0.837188	0.389590	0.739130
	H13	H	0.154446	0.599502	0.739615
	H14	H	0.838683	0.602453	0.295124
	H15	H	0.153818	0.386708	0.294923
	H16	H	0.387123	0.718720	0.860877
	H17	H	0.603180	0.719178	0.175107
	H18	H	0.601365	0.273773	0.861826
	H19	H	0.383527	0.269990	0.174806
	H20	H	0.716659	0.838133	0.413927
	H21	H	0.718962	0.153278	0.626443
	H22	H	0.273309	0.837856	0.625020
	H23	H	0.268857	0.152242	0.410076
	H24	H	0.887308	0.337970	0.241777
	H25	H	0.102639	0.652434	0.241048
	H26	H	0.100086	0.336882	0.797712
	H27	H	0.890812	0.653399	0.796915
	H28	H	0.216252	0.889458	0.360751
	H29	H	0.214859	0.098453	0.677680
	H30	H	0.770693	0.103643	0.360448
	H31	H	0.778655	0.895505	0.678571
	H32	H	0.335723	0.217010	0.912522
	H33	H	0.652929	0.218225	0.125713
	H34	H	0.334668	0.774860	0.123400
	H35	H	0.654083	0.776524	0.915748
	H36	H	0.335549	0.890881	0.239563
	H37	H	0.653742	0.103108	0.241096
	H38	H	0.336221	0.100608	0.797351
	H39	H	0.654474	0.892734	0.800616
	H40	H	0.886354	0.219217	0.360066
	H41	H	0.101753	0.217273	0.675919
	H42	H	0.103681	0.771572	0.361951
	H43	H	0.892335	0.775953	0.677041
	H44	H	0.217010	0.337580	0.912698
	H45	H	0.215268	0.654147	0.122078
	H46	H	0.772551	0.337571	0.124178
	H47	H	0.776295	0.654813	0.915321
	H48	H	0.402802	0.109666	0.607909
	H49	H	0.588961	0.879887	0.614468
	H50	H	0.580908	0.107443	0.433241
	H51	H	0.407390	0.884705	0.431025
	H52	H	0.580749	0.410235	0.130799
	H53	H	0.582479	0.586786	0.905205
	H54	H	0.407795	0.587307	0.132365
	H55	H	0.410122	0.408721	0.908281
	H56	H	0.108842	0.580023	0.428087
	H57	H	0.881771	0.582322	0.608450
	H58	H	0.108327	0.414689	0.609501
	H59	H	0.882135	0.402900	0.434823
	H60	H	0.113177	0.401200	0.612117
	H61	H	0.879888	0.586837	0.609235
	H62	H	0.110753	0.586521	0.431610
	H63	H	0.884903	0.413900	0.430790
	H64	H	0.403671	0.583803	0.132157
	H65	H	0.584691	0.587921	0.903904
	H66	H	0.580998	0.405258	0.132181
	H67	H	0.407063	0.404023	0.904784
	H68	H	0.584232	0.109415	0.430338
	H69	H	0.578843	0.884589	0.609579
	H70	H	0.408666	0.107861	0.609618
	H71	H	0.405305	0.884049	0.429700
	H72	H	0.904870	0.607380	0.105279
	H73	H	0.086883	0.381085	0.106821
	H74	H	0.081655	0.607418	0.931371
	H75	H	0.906131	0.384352	0.933929
	H76	H	0.080113	0.898176	0.633872
	H77	H	0.082505	0.091662	0.403110
	H78	H	0.907436	0.086888	0.630139
	H79	H	0.905522	0.905942	0.403325
	H80	H	0.609145	0.089199	0.934397
	H81	H	0.382544	0.079950	0.107483
	H82	H	0.608252	0.907279	0.107949
	H83	H	0.379221	0.902858	0.932034
	H84	H	0.609002	0.906144	0.106650
	H85	H	0.379829	0.085671	0.108063
	H86	H	0.606061	0.080560	0.932428
	H87	H	0.382463	0.912135	0.932289
	H88	H	0.906168	0.084345	0.630460
	H89	H	0.088465	0.076358	0.405512
	H90	H	0.092188	0.906961	0.635070
	H91	H	0.906809	0.907060	0.404737
	H92	H	0.086063	0.609794	0.929218
	H93	H	0.079227	0.382899	0.109689
	H94	H	0.906189	0.608554	0.109668
	H95	H	0.898972	0.379550	0.926774
	H96	H	0.407148	0.106939	0.603315
	H97	H	0.589491	0.883086	0.602894
	H98	H	0.579831	0.108411	0.428713
	H99	H	0.407567	0.883378	0.428408
	H100	H	0.585238	0.407989	0.132462
	H101	H	0.584724	0.585373	0.904819
	H102	H	0.407704	0.582668	0.129825
	H103	H	0.403901	0.409424	0.906048
	H104	H	0.107228	0.580934	0.435009
	H105	H	0.882107	0.585944	0.604611
	H106	H	0.107926	0.404600	0.598508
	H107	H	0.880019	0.405956	0.423083
	H108	H	0.909533	0.606791	0.106251
	H109	H	0.081128	0.384564	0.101533
	H110	H	0.081953	0.608125	0.925472
	H111	H	0.909731	0.381399	0.923802
	H112	H	0.079512	0.911944	0.629005
	H113	H	0.073101	0.079926	0.409195
	H114	H	0.909328	0.084147	0.629945
	H115	H	0.907204	0.905103	0.404760
	H116	H	0.610490	0.085618	0.925680
	H117	H	0.382576	0.084078	0.102073
	H118	H	0.607269	0.908133	0.106581
	H119	H	0.379210	0.907946	0.923829
	C120	C	0.373704	0.003932	0.639551
	C121	C	0.617685	0.987064	0.641184
	C122	C	0.615687	0.004768	0.397593
	C123	C	0.372457	0.987565	0.396337
	C124	C	0.615125	0.375430	0.027307
	C125	C	0.616355	0.617966	1.009292
	C126	C	0.373237	0.617057	0.026826
	C127	C	0.372897	0.373859	1.010046
	C128	C	0.004551	0.615782	0.397988
	C129	C	0.986535	0.616817	0.640058
	C130	C	0.004371	0.374642	0.638736
	C131	C	0.986754	0.373477	0.396271
	C132	C	0.873073	0.503690	0.140323
	C133	C	0.116113	0.486809	0.139303
	C134	C	0.116472	0.503891	0.896487
	C135	C	0.873555	0.486761	0.896595
	C136	C	0.116782	0.873031	0.527786
	C137	C	0.115429	0.115823	0.509961
	C138	C	0.873452	0.118128	0.526382
	C139	C	0.874991	0.874984	0.509713
	C140	C	0.503826	0.117420	0.897494
	C141	C	0.486275	0.116925	0.139783
	C142	C	0.502783	0.874553	0.139681
	C143	C	0.485611	0.875421	0.897852
	C144	C	0.370551	0.885724	0.700952
	C145	C	0.621116	0.105135	0.702547
	C146	C	0.619012	0.886539	0.336394
	C147	C	0.367057	0.105066	0.334058
	C148	C	0.675173	0.373308	0.908039
	C149	C	0.677537	0.620250	0.128299
	C150	C	0.312738	0.619818	0.907695
	C151	C	0.311439	0.370646	0.128453
	C152	C	0.885679	0.677642	0.393881
	C153	C	0.106275	0.676964	0.643515
	C154	C	0.884371	0.315224	0.640258
	C155	C	0.105180	0.310813	0.391432
	C156	C	0.884756	0.371714	0.698912
	C157	C	0.106496	0.618330	0.700003
	C158	C	0.885820	0.620008	0.336000
	C159	C	0.105846	0.369178	0.334830
	C160	C	0.369688	0.678211	0.908192
	C161	C	0.620243	0.678652	0.127987
	C162	C	0.618725	0.314321	0.908582
	C163	C	0.367855	0.311627	0.128006
	C164	C	0.676470	0.885955	0.394962
	C165	C	0.678628	0.105554	0.644427
	C166	C	0.313295	0.885304	0.642766
	C167	C	0.309569	0.105091	0.392330
	C168	C	0.869986	0.385207	0.201002
	C169	C	0.119644	0.605281	0.200509
	C170	C	0.118667	0.384595	0.837200
	C171	C	0.872089	0.606154	0.837089
	C172	C	0.176776	0.871200	0.408555
	C173	C	0.175336	0.117373	0.629723
	C174	C	0.811228	0.121469	0.407850
	C175	C	0.817219	0.875422	0.630348
	C176	C	0.383776	0.177269	0.894742
	C177	C	0.605533	0.177982	0.143484
	C178	C	0.382749	0.814735	0.141788
	C179	C	0.606046	0.816115	0.896897
	C180	C	0.383092	0.872492	0.199623
	C181	C	0.605672	0.120470	0.200951
	C182	C	0.383912	0.119548	0.837027
	C183	C	0.606511	0.874116	0.839727
	C184	C	0.869050	0.179175	0.407592
	C185	C	0.118880	0.176439	0.628753
	C186	C	0.120637	0.812264	0.409058
	C187	C	0.873834	0.816252	0.629660
	C188	C	0.177122	0.385043	0.894275
	C189	C	0.175930	0.606145	0.141440
	C190	C	0.812266	0.385133	0.142533
	C191	C	0.815067	0.606817	0.895834
	C192	C	0.399052	0.086725	0.613978
	C193	C	0.592792	0.904022	0.616031
	C194	C	0.589376	0.087183	0.423349
	C195	C	0.399229	0.905343	0.422321
	C196	C	0.589553	0.400473	0.110057
	C197	C	0.591068	0.593384	0.926286
	C198	C	0.398995	0.591765	0.109837
	C199	C	0.399519	0.400041	0.927751
	C200	C	0.087237	0.589762	0.423990
	C201	C	0.903201	0.592237	0.614647
	C202	C	0.087969	0.399580	0.613679
	C203	C	0.904056	0.399825	0.422220
	C204	C	0.899211	0.586170	0.114532
	C205	C	0.090112	0.404460	0.113592
	C206	C	0.090663	0.586772	0.921514
	C207	C	0.898031	0.403560	0.920993
	C208	C	0.091260	0.898366	0.610922
	C209	C	0.089069	0.089953	0.427593
	C210	C	0.900088	0.092464	0.608778
	C211	C	0.899341	0.899056	0.426144
	C212	C	0.586908	0.092267	0.923380
	C213	C	0.403410	0.090874	0.113331
	C214	C	0.586359	0.899764	0.114407
	C215	C	0.402077	0.900373	0.922297
	Zn216	Zn	0.494737	-0.004550	0.768878
	Zn217	Zn	0.494470	-0.003925	0.267733
	Zn218	Zn	0.744740	0.495877	0.018120
	Zn219	Zn	0.244586	0.495526	0.018069
	Zn220	Zn	-0.004163	0.745102	0.518669
	Zn221	Zn	-0.004414	0.245969	0.517686
	Zn222	Zn	-0.004775	0.494854	0.767459
	Zn223	Zn	-0.004388	0.494987	0.268546
	Zn224	Zn	0.494200	0.746192	0.018447
	Zn225	Zn	0.494567	0.245668	0.019170
	Zn226	Zn	0.745576	-0.003840	0.518245
	Zn227	Zn	0.244303	-0.004762	0.518763
	N228	N	0.407708	0.960664	0.698958
	N229	N	0.584123	0.030244	0.700838
	N230	N	0.582053	0.961473	0.337736
	N231	N	0.405383	0.030955	0.336471
	N232	N	0.673333	0.410191	0.982892
	N233	N	0.675309	0.583196	0.053403
	N234	N	0.315049	0.582412	0.982506
	N235	N	0.314408	0.408634	0.054050
	N236	N	0.960597	0.675343	0.431562
	N237	N	0.030635	0.675982	0.606747
	N238	N	0.959972	0.316701	0.603879
	N239	N	0.030160	0.313313	0.428882
	N240	N	0.960371	0.407889	0.698061
	N241	N	0.031258	0.581347	0.697853
	N242	N	0.960675	0.582471	0.338273
	N243	N	0.031150	0.407274	0.337442
	N244	N	0.406691	0.676725	0.983334
	N245	N	0.583009	0.677422	0.053183
	N246	N	0.581987	0.315482	0.983850
	N247	N	0.405375	0.313503	0.053362
	N248	N	0.674537	0.960553	0.432056
	N249	N	0.676483	0.031143	0.606789
	N250	N	0.315383	0.959675	0.605062
	N251	N	0.312989	0.031052	0.430692
	N252	N	0.906901	0.460040	0.199919
	N253	N	0.083363	0.529942	0.199507
	N254	N	0.081858	0.459516	0.838396
	N255	N	0.907405	0.530448	0.837163
	N256	N	0.174566	0.908333	0.483413
	N257	N	0.173527	0.080656	0.554666
	N258	N	0.813584	0.084453	0.482842
	N259	N	0.817576	0.911008	0.554615
	N260	N	0.459500	0.176347	0.931377
	N261	N	0.530134	0.176248	0.106554
	N262	N	0.458481	0.815723	0.105558
	N263	N	0.529874	0.816499	0.931950
	N264	N	0.458795	0.908592	0.198421
	N265	N	0.530288	0.083492	0.198942
	N266	N	0.459501	0.083287	0.838431
	N267	N	0.530634	0.910047	0.839977
	N268	N	0.907045	0.177179	0.482204
	N269	N	0.082494	0.175635	0.553377
	N270	N	0.084343	0.813172	0.484293
	N271	N	0.908805	0.815759	0.553546
	N272	N	0.175997	0.460391	0.930192
	N273	N	0.174067	0.531438	0.104339
	N274	N	0.814248	0.459994	0.105609
	N275	N	0.815724	0.531481	0.931980
	O276	O	0.305440	0.684920	0.330087
	H277	H	0.303410	0.670765	0.345341
	H278	H	0.312976	0.670141	0.345134
	O279	O	1.127169	-0.207087	0.919391
	H280	H	1.128068	-0.188185	0.920356
	H281	H	1.148462	-0.218420	0.908971
	O282	O	-0.007047	1.014637	1.172325
	H283	H	-0.022348	1.024118	1.179232
	H284	H	-0.011981	0.988167	1.179961
	O285	O	-0.147569	1.097550	0.053769
	H286	H	-0.127262	1.103285	0.046186
	H287	H	-0.133175	1.102127	0.090406
	O288	O	1.285769	1.536184	-0.392375
	H289	H	1.287121	1.528502	-0.379826
	H290	H	1.295757	1.541300	-0.393946
	O291	O	0.281602	0.285153	0.528990
	H292	H	0.299924	0.297211	0.513208
	H293	H	0.251655	0.266136	0.527527
	O294	O	-0.005056	0.082877	1.092912
	H295	H	-0.023997	0.102787	1.097562
	H296	H	-0.012563	0.072513	1.085274
	O297	O	0.298521	0.490330	0.331237
	H298	H	0.316079	0.488993	0.335654
	H299	H	0.289842	0.482273	0.313110
	O300	O	1.188989	0.952291	0.969329
	H301	H	1.180896	0.944597	0.962435
	H302	H	1.198265	0.942449	0.986644
	O303	O	0.692148	0.495828	0.690495
	H304	H	0.696829	0.490765	0.701897
	H305	H	0.701099	0.502740	0.681313
	O306	O	0.400652	0.638490	0.299250
	H307	H	0.368697	0.641772	0.281718
	H308	H	0.409169	0.640813	0.302471
	O309	O	1.006033	0.123931	0.142286
	H310	H	1.027467	0.116696	0.148881
	H311	H	1.012288	0.149400	0.159882
	O312	O	0.000025	0.967827	0.964642
	H313	H	-0.009254	0.968825	0.948412
	H314	H	0.011935	0.970263	0.955439
	O315	O	0.702805	0.288815	0.500466
	H316	H	0.673287	0.293276	0.526503
	H317	H	0.722895	0.254832	0.500958
	O318	O	1.088625	-0.124287	-0.054722
	H319	H	1.086913	-0.125752	-0.057282
	H320	H	1.100994	-0.119733	-0.060432
	O321	O	0.393370	0.668166	-0.343209
	H322	H	0.415591	0.667558	-0.356999
	H323	H	0.404136	0.658926	-0.329184
	O324	O	0.672385	0.313582	0.339492
	H325	H	0.684303	0.305572	0.390205
	H326	H	0.685140	0.359825	0.329764
	O327	O	0.550826	0.563331	0.466375
	H328	H	0.554175	0.565453	0.458423
	H329	H	0.530863	0.564017	0.465374
	O330	O	0.104974	1.150292	0.203449
	H331	H	0.103039	1.128199	0.207887
	H332	H	0.104088	1.154450	0.173064
	O333	O	0.308023	0.447188	0.484822
	H334	H	0.320555	0.453825	0.470576
	H335	H	0.306110	0.454295	0.483078
	O336	O	-0.025712	-0.210790	0.227192
	H337	H	-0.036013	-0.222718	0.237563
	H338	H	-0.024249	-0.218950	0.232006
	O339	O	-0.193766	0.891254	0.056459
	H340	H	-0.179864	0.896918	0.043951
	H341	H	-0.187370	0.880024	0.039203
	O342	O	-0.133317	1.167513	0.952816
	H343	H	-0.126885	1.181138	0.971261
	H344	H	-0.145678	1.170161	0.960319
	O345	O	0.291093	0.684262	-0.494331
	H346	H	0.290978	0.673430	-0.474192
	H347	H	0.281670	0.702149	-0.493880
	O348	O	0.514009	0.275886	0.298524
	H349	H	0.529401	0.248536	0.270732
	H350	H	0.555006	0.282688	0.300301
	O351	O	0.597703	1.403300	1.666920
	H352	H	0.595081	1.396851	1.656385
	H353	H	0.592947	1.398533	1.668484
	O354	O	0.514412	0.686477	-0.268674
	H355	H	0.518809	0.711919	-0.242305
	H356	H	0.555001	0.676618	-0.277989
	O357	O	-0.142316	-0.165479	0.912187
	H358	H	-0.139334	-0.154682	0.921368
	H359	H	-0.120798	-0.162523	0.902668
	O360	O	0.331213	0.470087	0.665899
	H361	H	0.316035	0.475397	0.691785
	H362	H	0.363808	0.484853	0.670259
	O363	O	-0.187934	0.076228	0.919396
	H364	H	-0.191366	0.085986	0.906687
	H365	H	-0.194019	0.101304	0.921433
	O366	O	0.583090	0.678195	0.407706
	H367	H	0.561174	0.670045	0.410361
	H368	H	0.588992	0.693039	0.395484
	O369	O	0.566055	0.311624	0.576356
	H370	H	0.549589	0.302513	0.603250
	H371	H	0.546151	0.318829	0.557390
	O372	O	0.802931	-0.132761	1.176338
	H373	H	0.785624	-0.142128	1.161070
	H374	H	0.818707	-0.118551	1.165250
	O375	O	0.653172	0.517962	0.500716
	H376	H	0.651220	0.511009	0.507108
	H377	H	0.647473	0.520425	0.490812
	O378	O	0.652769	0.417137	0.721877
	H379	H	0.655638	0.427426	0.718181
	H380	H	0.648090	0.414686	0.721451
	O381	O	0.509573	0.631351	0.453989
	H382	H	0.503510	0.633203	0.467714
	H383	H	0.512418	0.617657	0.462904
	O384	O	0.471643	0.333203	0.462411
	H385	H	0.468281	0.339297	0.439817
	H386	H	0.458773	0.331525	0.448178
	O387	O	0.201932	0.015230	1.220931
	H388	H	0.189822	0.020183	1.219042
	H389	H	0.222012	0.023159	1.243173
	O390	O	-0.163700	-0.052634	-0.154631
	H391	H	-0.167421	-0.040755	-0.148115
	H392	H	-0.164292	-0.049158	-0.162081
	O393	O	1.056960	1.174187	0.857065
	H394	H	1.055261	1.169981	0.846070
	H395	H	1.039073	1.172969	0.844929
	O396	O	1.185844	-0.116732	-0.164482
	H397	H	1.175797	-0.109015	-0.146681
	H398	H	1.200346	-0.121100	-0.182439
	O399	O	0.806705	0.161596	0.820898
	H400	H	0.798927	0.156733	0.821987
	H401	H	0.799433	0.163760	0.822057
	O402	O	1.160839	1.111358	1.051232
	H403	H	1.169307	1.131607	1.054926
	H404	H	1.156189	1.094715	1.041241
	O405	O	1.056263	1.189228	0.060450
	H406	H	1.066313	1.197774	0.067084
	H407	H	1.046173	1.187729	0.041459
	O408	O	0.432400	-0.598014	0.362003
	H409	H	0.449407	-0.602417	0.372772
	H410	H	0.452723	-0.599097	0.350954
	O411	O	1.009283	1.034598	-0.180046
	H412	H	1.015571	1.048128	-0.186404
	H413	H	0.997103	1.041328	-0.179713
	O414	O	0.446928	0.563813	0.500340
	H415	H	0.440801	0.561751	0.494766
	H416	H	0.441982	0.575873	0.488308
	O417	O	0.467071	0.275377	0.733758
	H418	H	0.431137	0.286180	0.721370
	H419	H	0.460223	0.244516	0.767326
	O420	O	0.046777	-0.083648	0.160490
	H421	H	0.051872	-0.087826	0.165612
	H422	H	0.056784	-0.083830	0.172678
	O423	O	0.674229	0.692849	0.715691
	H424	H	0.685402	0.712011	0.708688
	H425	H	0.683296	0.677478	0.705413
	O426	O	0.446758	0.523271	0.733085
	H427	H	0.463706	0.535837	0.740392
	H428	H	0.471696	0.511551	0.730951
	O429	O	-0.026299	1.049261	-0.085312
	H430	H	-0.040252	1.051462	-0.079550
	H431	H	-0.017493	1.053647	-0.072557
	O432	O	0.696217	0.696570	0.552111
	H433	H	0.706482	0.707524	0.551688
	H434	H	0.698520	0.696490	0.544892
	O435	O	0.706458	0.503621	0.351660
	H436	H	0.713249	0.504563	0.332271
	H437	H	0.704451	0.515224	0.359115
	O438	O	0.138575	-0.150911	0.108547
	H439	H	0.145245	-0.149130	0.111658
	H440	H	0.125575	-0.151743	0.125605
	O441	O	1.305260	0.302614	-0.292954
	H442	H	1.300811	0.350441	-0.283848
	H443	H	1.296073	0.296231	-0.343078
	O444	O	0.034510	0.907793	0.938848
	H445	H	0.045179	0.911326	0.953285
	H446	H	0.032111	0.914547	0.957785
	O447	O	0.640648	0.730613	0.287817
	H448	H	0.632433	0.730832	0.271633
	H449	H	0.637777	0.715688	0.291709
	O450	O	0.795155	-0.012998	0.228036
	H451	H	0.795581	-0.030590	0.221551
	H452	H	0.777147	-0.022306	0.243406
	O453	O	0.616237	0.498668	0.405548
	H454	H	0.608446	0.499313	0.406654
	H455	H	0.608803	0.501089	0.410549
