data_Molecule from HDF5

_cell_length_a		16.162168
_cell_length_b		16.186927
_cell_length_c		16.215057
_cell_angle_alpha	89.704672
_cell_angle_beta	88.829353
_cell_angle_gamma	90.129803
_symmetry_space_group_name_H-M	'P 1'
_symmetry_Int_Tables_number		1

loop_
	_symmetry_equiv_pos_as_xyz
	x,y,z

loop_
	_atom_site_label
	_atom_site_type_symbol
	_atom_site_fract_x
	_atom_site_fract_y
	_atom_site_fract_z
	H0	H	0.403893	0.838186	0.714919
	H1	H	0.601521	0.166955	0.707461
	H2	H	0.609168	0.838016	0.279378
	H3	H	0.408565	0.165903	0.283148
	H4	H	0.724091	0.403580	0.835422
	H5	H	0.711598	0.597793	0.164174
	H6	H	0.293961	0.601029	0.832655
	H7	H	0.286502	0.401131	0.161571
	H8	H	0.841076	0.716969	0.403217
	H9	H	0.169949	0.715037	0.593920
	H10	H	0.840557	0.288283	0.601495
	H11	H	0.170533	0.290661	0.398556
	H12	H	0.841481	0.401821	0.717483
	H13	H	0.170315	0.600159	0.708352
	H14	H	0.839760	0.600530	0.290564
	H15	H	0.168705	0.403384	0.280294
	H16	H	0.410420	0.716010	0.832574
	H17	H	0.600527	0.716563	0.161302
	H18	H	0.605549	0.291682	0.832161
	H19	H	0.400465	0.284560	0.159794
	H20	H	0.723621	0.838784	0.395787
	H21	H	0.714725	0.167405	0.591122
	H22	H	0.289573	0.837371	0.599345
	H23	H	0.294316	0.166774	0.400349
	H24	H	0.901840	0.338118	0.217765
	H25	H	0.100659	0.667055	0.208911
	H26	H	0.106250	0.337415	0.783518
	H27	H	0.906549	0.665495	0.785146
	H28	H	0.224071	0.903216	0.335480
	H29	H	0.215539	0.099586	0.663477
	H30	H	0.798208	0.101858	0.332949
	H31	H	0.786108	0.903688	0.661757
	H32	H	0.340899	0.217064	0.898670
	H33	H	0.669912	0.215791	0.091486
	H34	H	0.340672	0.786993	0.100184
	H35	H	0.669902	0.788898	0.893938
	H36	H	0.342855	0.899095	0.217912
	H37	H	0.670716	0.099830	0.203606
	H38	H	0.340307	0.100327	0.786554
	H39	H	0.669202	0.903776	0.778948
	H40	H	0.910718	0.218250	0.335526
	H41	H	0.101106	0.215299	0.663558
	H42	H	0.108791	0.788478	0.335325
	H43	H	0.901766	0.786944	0.663504
	H44	H	0.219233	0.337187	0.898738
	H45	H	0.218366	0.666071	0.094977
	H46	H	0.787390	0.337131	0.102359
	H47	H	0.794609	0.666595	0.904557
	H48	H	0.415498	0.120373	0.600231
	H49	H	0.598580	0.882591	0.591009
	H50	H	0.615577	0.123354	0.401105
	H51	H	0.420665	0.886265	0.405165
	H52	H	0.596564	0.404232	0.117194
	H53	H	0.599897	0.607079	0.877001
	H54	H	0.408154	0.583414	0.112421
	H55	H	0.428768	0.414069	0.885178
	H56	H	0.127830	0.600088	0.391895
	H57	H	0.882798	0.602149	0.600231
	H58	H	0.126327	0.397170	0.585549
	H59	H	0.888167	0.409641	0.413912
	H60	H	0.119628	0.417445	0.585798
	H61	H	0.889716	0.594049	0.585902
	H62	H	0.122886	0.602071	0.412208
	H63	H	0.886858	0.412027	0.407567
	H64	H	0.419104	0.598130	0.113262
	H65	H	0.612728	0.589678	0.878788
	H66	H	0.593121	0.409856	0.115368
	H67	H	0.411161	0.393867	0.874287
	H68	H	0.595638	0.122868	0.386264
	H69	H	0.592636	0.884786	0.590811
	H70	H	0.413885	0.117624	0.585382
	H71	H	0.414355	0.886409	0.414581
	H72	H	0.915812	0.618309	0.095330
	H73	H	0.095697	0.383688	0.090923
	H74	H	0.106739	0.621036	0.905026
	H75	H	0.905629	0.380553	0.907796
	H76	H	0.101048	0.902770	0.620163
	H77	H	0.102987	0.094178	0.381382
	H78	H	0.903517	0.100479	0.620137
	H79	H	0.917902	0.908653	0.380787
	H80	H	0.619311	0.087728	0.907397
	H81	H	0.388427	0.095145	0.085354
	H82	H	0.624122	0.908608	0.090313
	H83	H	0.386473	0.903613	0.910507
	H84	H	0.623669	0.905231	0.083066
	H85	H	0.388079	0.086506	0.093312
	H86	H	0.626386	0.093028	0.888708
	H87	H	0.389306	0.912607	0.909725
	H88	H	0.904628	0.087728	0.615788
	H89	H	0.099345	0.096438	0.382096
	H90	H	0.097851	0.916739	0.615012
	H91	H	0.915945	0.909318	0.381635
	H92	H	0.095999	0.620219	0.897123
	H93	H	0.093146	0.384113	0.091727
	H94	H	0.903122	0.619250	0.087928
	H95	H	0.919305	0.384165	0.902561
	H96	H	0.401657	0.123369	0.593108
	H97	H	0.596647	0.885159	0.585080
	H98	H	0.593416	0.114826	0.410186
	H99	H	0.411054	0.881872	0.404036
	H100	H	0.590065	0.404802	0.115623
	H101	H	0.592315	0.587685	0.884845
	H102	H	0.400628	0.599171	0.118429
	H103	H	0.400485	0.419640	0.878570
	H104	H	0.119435	0.583637	0.402943
	H105	H	0.887621	0.585672	0.600302
	H106	H	0.127089	0.408609	0.602502
	H107	H	0.885982	0.405982	0.409322
	H108	H	0.904168	0.623459	0.103538
	H109	H	0.093881	0.385395	0.089355
	H110	H	0.093895	0.616751	0.908752
	H111	H	0.916258	0.386959	0.916565
	H112	H	0.087589	0.905126	0.615646
	H113	H	0.102562	0.098495	0.379882
	H114	H	0.915117	0.095211	0.615340
	H115	H	0.917048	0.910496	0.381975
	H116	H	0.625800	0.107632	0.902525
	H117	H	0.384748	0.097607	0.096064
	H118	H	0.621888	0.912457	0.085017
	H119	H	0.384936	0.909484	0.901927
	C120	C	0.381573	0.011202	0.621924
	C121	C	0.624167	0.993420	0.616497
	C122	C	0.630337	0.011323	0.371540
	C123	C	0.386251	0.993137	0.378097
	C124	C	0.625439	0.379483	0.007091
	C125	C	0.626930	0.622996	0.989262
	C126	C	0.383282	0.622793	0.005796
	C127	C	0.382154	0.379415	0.987877
	C128	C	0.014161	0.623937	0.377224
	C129	C	0.995884	0.622870	0.621195
	C130	C	0.014849	0.379594	0.621660
	C131	C	0.996044	0.381000	0.378579
	C132	C	0.879126	0.511107	0.124591
	C133	C	0.123651	0.493026	0.118329
	C134	C	0.127595	0.510603	0.875273
	C135	C	0.885280	0.492770	0.880422
	C136	C	0.126776	0.880102	0.508174
	C137	C	0.127364	0.124091	0.490087
	C138	C	0.883272	0.123815	0.507687
	C139	C	0.884640	0.880489	0.489968
	C140	C	0.514233	0.124063	0.874208
	C141	C	0.496211	0.122251	0.117227
	C142	C	0.514768	0.879361	0.118530
	C143	C	0.496121	0.880347	0.875770
	C144	C	0.383548	0.887126	0.677281
	C145	C	0.621593	0.117678	0.670247
	C146	C	0.628824	0.887435	0.317153
	C147	C	0.388776	0.116940	0.321694
	C148	C	0.684588	0.383267	0.883982
	C149	C	0.676396	0.618767	0.114313
	C150	C	0.330695	0.621028	0.881696
	C151	C	0.324698	0.381295	0.111901
	C152	C	0.890117	0.679199	0.382226
	C153	C	0.120419	0.678044	0.615913
	C154	C	0.890162	0.325344	0.621319
	C155	C	0.120673	0.327385	0.378634
	C156	C	0.890743	0.381737	0.678949
	C157	C	0.120774	0.620549	0.672264
	C158	C	0.889555	0.621511	0.326106
	C159	C	0.119697	0.383334	0.319858
	C160	C	0.388409	0.678487	0.881752
	C161	C	0.621197	0.677668	0.112960
	C162	C	0.625665	0.327521	0.882281
	C163	C	0.381560	0.323484	0.111421
	C164	C	0.685925	0.887822	0.375000
	C165	C	0.678040	0.118145	0.612562
	C166	C	0.326716	0.886826	0.619732
	C167	C	0.331851	0.117340	0.380121
	C168	C	0.881414	0.387200	0.180222
	C169	C	0.121285	0.617639	0.172071
	C170	C	0.125501	0.386639	0.821137
	C171	C	0.887102	0.616627	0.824347
	C172	C	0.185080	0.882720	0.384559
	C173	C	0.179422	0.120662	0.614255
	C174	C	0.833402	0.121975	0.382947
	C175	C	0.825049	0.882439	0.612980
	C176	C	0.390242	0.179202	0.878530
	C177	C	0.620395	0.178062	0.112235
	C178	C	0.390227	0.824154	0.119341
	C179	C	0.620529	0.826367	0.875194
	C180	C	0.391337	0.879932	0.177890
	C181	C	0.621140	0.120218	0.168110
	C182	C	0.389858	0.121165	0.822724
	C183	C	0.619971	0.883247	0.817631
	C184	C	0.889566	0.179872	0.384251
	C185	C	0.122454	0.178114	0.614412
	C186	C	0.127704	0.825759	0.384454
	C187	C	0.883110	0.824939	0.614015
	C188	C	0.182110	0.386519	0.878195
	C189	C	0.179627	0.617088	0.115210
	C190	C	0.824805	0.386690	0.122339
	C191	C	0.831372	0.617104	0.883762
	C192	C	0.403732	0.097910	0.599466
	C193	C	0.602371	0.906677	0.595284
	C194	C	0.608149	0.097996	0.392923
	C195	C	0.408797	0.907015	0.401165
	C196	C	0.600450	0.400139	0.093714
	C197	C	0.607449	0.601337	0.902583
	C198	C	0.403387	0.600222	0.092313
	C199	C	0.406486	0.402397	0.901499
	C200	C	0.100846	0.601928	0.396611
	C201	C	0.909310	0.600658	0.601268
	C202	C	0.101850	0.401294	0.598122
	C203	C	0.909249	0.402728	0.403024
	C204	C	0.901120	0.597920	0.102318
	C205	C	0.101010	0.406665	0.096864
	C206	C	0.105448	0.596999	0.897025
	C207	C	0.907498	0.406155	0.902533
	C208	C	0.102492	0.901943	0.594595
	C209	C	0.107431	0.102898	0.403583
	C210	C	0.902122	0.101197	0.594662
	C211	C	0.909683	0.902969	0.403674
	C212	C	0.601259	0.102496	0.893777
	C213	C	0.409491	0.099712	0.097543
	C214	C	0.600941	0.902027	0.093488
	C215	C	0.409349	0.902035	0.900211
	Zn216	Zn	0.504640	0.002082	0.747353
	Zn217	Zn	0.506432	0.001440	0.245751
	Zn218	Zn	0.754235	0.501093	0.000583
	Zn219	Zn	0.254337	0.501419	-0.003101
	Zn220	Zn	0.005722	0.751075	0.499289
	Zn221	Zn	0.005482	0.251847	0.500143
	Zn222	Zn	0.005968	0.501882	0.749021
	Zn223	Zn	0.003455	0.502099	0.249318
	Zn224	Zn	0.505371	0.751690	-0.002940
	Zn225	Zn	0.504457	0.250987	-0.003527
	Zn226	Zn	0.755248	0.002928	0.496871
	Zn227	Zn	0.255213	0.002164	0.499107
	N228	N	0.416732	0.965337	0.678865
	N229	N	0.588654	0.039180	0.672688
	N230	N	0.595155	0.965309	0.314815
	N231	N	0.422040	0.038647	0.320349
	N232	N	0.684472	0.414653	0.962738
	N233	N	0.680218	0.585707	0.036305
	N234	N	0.327591	0.587049	0.959735
	N235	N	0.325121	0.415375	0.033944
	N236	N	0.968611	0.681007	0.413272
	N237	N	0.041903	0.679849	0.584929
	N238	N	0.968428	0.323812	0.586358
	N239	N	0.042677	0.325788	0.414523
	N240	N	0.969280	0.414788	0.679225
	N241	N	0.042362	0.587121	0.676025
	N242	N	0.967559	0.587581	0.322645
	N243	N	0.041247	0.416074	0.319874
	N244	N	0.420242	0.679657	0.959888
	N245	N	0.591135	0.680501	0.034223
	N246	N	0.589592	0.325026	0.959880
	N247	N	0.416569	0.322004	0.033369
	N248	N	0.687184	0.965998	0.407973
	N249	N	0.679799	0.039990	0.579705
	N250	N	0.325284	0.965038	0.586012
	N251	N	0.330225	0.039526	0.414672
	N252	N	0.914629	0.465569	0.181714
	N253	N	0.086990	0.539577	0.173918
	N254	N	0.092125	0.464771	0.819422
	N255	N	0.919969	0.538250	0.822186
	N256	N	0.184681	0.915915	0.462638
	N257	N	0.182725	0.087917	0.536145
	N258	N	0.829680	0.087590	0.460728
	N259	N	0.825804	0.916257	0.534817
	N260	N	0.468567	0.181056	0.910077
	N261	N	0.541712	0.179420	0.081173
	N262	N	0.467966	0.823468	0.083176
	N263	N	0.542544	0.824482	0.910790
	N264	N	0.469715	0.913397	0.177620
	N265	N	0.542954	0.086234	0.171643
	N266	N	0.467903	0.087546	0.819948
	N267	N	0.541504	0.916201	0.818011
	N268	N	0.919640	0.181402	0.463056
	N269	N	0.090872	0.180602	0.536108
	N270	N	0.092150	0.824131	0.462220
	N271	N	0.919486	0.823781	0.536613
	N272	N	0.183772	0.464527	0.911223
	N273	N	0.181329	0.538829	0.082494
	N274	N	0.823138	0.464847	0.088678
	N275	N	0.830132	0.539034	0.917888
	O276	O	1.023775	1.046846	0.098414
	H277	H	1.028407	1.052518	0.095964
	H278	H	1.018499	1.045974	0.108765
	O279	O	0.004894	0.024128	0.908157
	H280	H	0.008646	0.020145	0.914014
	H281	H	0.005511	0.018706	0.902662
	O282	O	-0.093763	-0.068609	0.158417
	H283	H	-0.099385	-0.071043	0.148894
	H284	H	-0.087974	-0.076151	0.163339
	O285	O	0.472604	0.475133	0.465008
	H286	H	0.476709	0.466588	0.470347
	H287	H	0.473255	0.470719	0.470488
	O288	O	0.067827	-0.013478	0.000215
	H289	H	0.083577	-0.025382	-0.004870
	H290	H	0.062120	-0.008362	0.000851
	O291	O	0.088299	1.053961	-0.014497
	H292	H	0.091227	1.050739	-0.012501
	H293	H	0.086938	1.049521	-0.020662
	O294	O	0.050130	1.007198	0.037735
	H295	H	0.044729	1.008608	0.034104
	H296	H	0.044439	1.006324	0.034185
	O297	O	0.542473	0.447683	0.450406
	H298	H	0.551316	0.436036	0.443999
	H299	H	0.538732	0.443462	0.449752
	O300	O	0.499209	0.515861	0.497462
	H301	H	0.494895	0.513214	0.496554
	H302	H	0.493922	0.518721	0.499769
	O303	O	1.055772	0.001039	0.965371
	H304	H	1.049905	0.009017	0.975122
	H305	H	1.055574	-0.002320	0.967044
	O306	O	-0.015731	0.928383	1.013651
	H307	H	-0.017186	0.937972	1.013970
	H308	H	-0.019487	0.934559	1.011158
	O309	O	-0.005276	1.080427	1.032670
	H310	H	-0.001277	1.078199	1.037644
	H311	H	-0.004841	1.087172	1.032496
	O312	O	-0.026746	-0.100834	1.012964
	H313	H	-0.031404	-0.104794	1.021254
	H314	H	-0.024693	-0.104950	1.008612
	O315	O	0.044368	-0.036502	-0.021907
	H316	H	0.042441	-0.035470	-0.022942
	H317	H	0.057313	-0.041206	-0.027973
	O318	O	0.046156	-0.057579	0.958241
	H319	H	0.039782	-0.070900	0.961938
	H320	H	0.052008	-0.050276	0.974401
	O321	O	0.509910	0.486857	0.477657
	H322	H	0.513920	0.479778	0.478578
	H323	H	0.507701	0.491184	0.479218
	O324	O	0.952841	0.058317	0.911174
	H325	H	0.946623	0.054314	0.913040
	H326	H	0.952842	0.057902	0.915184
	O327	O	1.023940	0.993587	0.947980
	H328	H	1.023121	0.990551	0.944037
	H329	H	1.027566	0.988045	0.941891
	O330	O	0.471566	0.502834	0.434759
	H331	H	0.463426	0.506802	0.433427
	H332	H	0.471539	0.492028	0.441941
	O333	O	0.991808	-0.006708	0.073573
	H334	H	1.008066	0.003273	0.073841
	H335	H	0.986404	-0.009430	0.070275
	O336	O	0.479788	0.548467	0.475876
	H337	H	0.476391	0.552819	0.476126
	H338	H	0.476337	0.543136	0.475646
	O339	O	0.529043	0.494447	0.460869
	H340	H	0.531233	0.506943	0.457238
	H341	H	0.538303	0.492614	0.449200
	O342	O	-0.008952	0.965645	1.091560
	H343	H	-0.012707	0.957873	1.090393
	H344	H	-0.014976	0.972263	1.100541
	O345	O	0.557424	0.541795	0.433921
	H346	H	0.559183	0.537487	0.433710
	H347	H	0.556886	0.559590	0.433794
