data_Molecule from HDF5

_cell_length_a		16.167527
_cell_length_b		16.297571
_cell_length_c		16.222378
_cell_angle_alpha	89.933490
_cell_angle_beta	89.994069
_cell_angle_gamma	89.858485
_symmetry_space_group_name_H-M	'P 1'
_symmetry_Int_Tables_number		1

loop_
	_symmetry_equiv_pos_as_xyz
	x,y,z

loop_
	_atom_site_label
	_atom_site_type_symbol
	_atom_site_fract_x
	_atom_site_fract_y
	_atom_site_fract_z
	H0	H	0.404052	0.839059	0.721780
	H1	H	0.600796	0.166345	0.718716
	H2	H	0.602331	0.838142	0.291732
	H3	H	0.403142	0.164740	0.291571
	H4	H	0.716956	0.403225	0.842640
	H5	H	0.715796	0.598849	0.171145
	H6	H	0.288394	0.601535	0.842707
	H7	H	0.291481	0.405104	0.171860
	H8	H	0.839487	0.716099	0.407597
	H9	H	0.168204	0.715543	0.606622
	H10	H	0.838590	0.287225	0.606808
	H11	H	0.166518	0.286536	0.407246
	H12	H	0.838156	0.403283	0.721251
	H13	H	0.168222	0.599153	0.721270
	H14	H	0.838866	0.600123	0.294277
	H15	H	0.167909	0.404203	0.295533
	H16	H	0.401301	0.719539	0.843224
	H17	H	0.601230	0.717098	0.170110
	H18	H	0.601974	0.287490	0.842922
	H19	H	0.403361	0.286717	0.170035
	H20	H	0.716677	0.837974	0.408454
	H21	H	0.715818	0.166851	0.601643
	H22	H	0.290772	0.837258	0.603956
	H23	H	0.289409	0.164813	0.408367
	H24	H	0.904077	0.338222	0.222116
	H25	H	0.100731	0.665425	0.220846
	H26	H	0.103148	0.337860	0.792757
	H27	H	0.902027	0.664069	0.790204
	H28	H	0.216133	0.904610	0.340789
	H29	H	0.217267	0.097852	0.670424
	H30	H	0.791112	0.097844	0.341477
	H31	H	0.790433	0.904727	0.670618
	H32	H	0.338782	0.218053	0.906646
	H33	H	0.666859	0.215231	0.104303
	H34	H	0.338983	0.788811	0.105605
	H35	H	0.667463	0.787633	0.906145
	H36	H	0.338363	0.905628	0.218158
	H37	H	0.666830	0.100430	0.219451
	H38	H	0.337807	0.101543	0.791991
	H39	H	0.667818	0.904598	0.792613
	H40	H	0.903333	0.217024	0.342853
	H41	H	0.102918	0.215510	0.669873
	H42	H	0.103691	0.786540	0.342705
	H43	H	0.904783	0.787534	0.670266
	H44	H	0.217447	0.338000	0.910457
	H45	H	0.215855	0.666029	0.104564
	H46	H	0.788474	0.338226	0.105511
	H47	H	0.788801	0.665309	0.908453
	H48	H	0.409688	0.117949	0.594782
	H49	H	0.598768	0.885084	0.597807
	H50	H	0.607490	0.121508	0.412542
	H51	H	0.409671	0.885794	0.415861
	H52	H	0.603710	0.411841	0.125679
	H53	H	0.596228	0.591625	0.889946
	H54	H	0.416592	0.602483	0.123903
	H55	H	0.412653	0.402986	0.886990
	H56	H	0.122533	0.599449	0.417590
	H57	H	0.889645	0.583791	0.595864
	H58	H	0.118921	0.408678	0.595944
	H59	H	0.885095	0.409980	0.415534
	H60	H	0.119735	0.411265	0.601725
	H61	H	0.882103	0.597053	0.609413
	H62	H	0.120170	0.589384	0.415836
	H63	H	0.884031	0.408824	0.412829
	H64	H	0.402397	0.597572	0.127040
	H65	H	0.590858	0.595700	0.890216
	H66	H	0.589209	0.412421	0.121025
	H67	H	0.403446	0.410015	0.887205
	H68	H	0.590326	0.120398	0.401507
	H69	H	0.597681	0.884784	0.602110
	H70	H	0.407234	0.120134	0.599579
	H71	H	0.406073	0.881944	0.408869
	H72	H	0.907159	0.617563	0.096096
	H73	H	0.090114	0.384489	0.110231
	H74	H	0.088959	0.616578	0.913499
	H75	H	0.918960	0.389944	0.922789
	H76	H	0.094555	0.909996	0.622730
	H77	H	0.099923	0.103312	0.385501
	H78	H	0.912796	0.092939	0.622138
	H79	H	0.915551	0.909181	0.390230
	H80	H	0.619525	0.091416	0.913567
	H81	H	0.382958	0.094509	0.104350
	H82	H	0.626683	0.894749	0.103538
	H83	H	0.384447	0.913737	0.908708
	H84	H	0.616860	0.910035	0.083091
	H85	H	0.383291	0.101527	0.095921
	H86	H	0.622234	0.097447	0.907957
	H87	H	0.384688	0.904353	0.914655
	H88	H	0.910289	0.097859	0.624588
	H89	H	0.100952	0.087443	0.389550
	H90	H	0.096246	0.905069	0.623317
	H91	H	0.910884	0.901348	0.387036
	H92	H	0.097532	0.617183	0.919103
	H93	H	0.094456	0.388719	0.091712
	H94	H	0.905704	0.620803	0.104757
	H95	H	0.898798	0.382912	0.918163
	H96	H	0.412674	0.117594	0.599906
	H97	H	0.594828	0.886113	0.599442
	H98	H	0.590183	0.114389	0.421416
	H99	H	0.414270	0.884304	0.408862
	H100	H	0.594657	0.400322	0.126353
	H101	H	0.597037	0.597931	0.887943
	H102	H	0.413090	0.588393	0.120785
	H103	H	0.413456	0.413341	0.891929
	H104	H	0.123149	0.595019	0.409008
	H105	H	0.886182	0.603499	0.590593
	H106	H	0.121973	0.404627	0.600478
	H107	H	0.884619	0.407294	0.415454
	H108	H	0.914340	0.617962	0.102588
	H109	H	0.107810	0.381148	0.103928
	H110	H	0.098196	0.620197	0.909564
	H111	H	0.914369	0.381981	0.902922
	H112	H	0.098767	0.909769	0.623803
	H113	H	0.087114	0.095255	0.391723
	H114	H	0.907291	0.092213	0.624402
	H115	H	0.905331	0.910672	0.387977
	H116	H	0.620574	0.099049	0.915986
	H117	H	0.387545	0.090653	0.094948
	H118	H	0.620763	0.921072	0.107873
	H119	H	0.388164	0.914107	0.918780
	C120	C	0.381483	0.010333	0.627241
	C121	C	0.625469	0.993617	0.627464
	C122	C	0.624767	0.010509	0.383714
	C123	C	0.381535	0.992551	0.383783
	C124	C	0.624652	0.379906	0.015746
	C125	C	0.623607	0.623356	0.997830
	C126	C	0.381235	0.624870	0.015290
	C127	C	0.381750	0.380718	0.997661
	C128	C	0.012746	0.623131	0.385785
	C129	C	0.995114	0.622962	0.627978
	C130	C	0.011438	0.379730	0.628660
	C131	C	0.993667	0.380266	0.386080
	C132	C	0.881010	0.510437	0.129388
	C133	C	0.125269	0.493342	0.129265
	C134	C	0.124664	0.509914	0.885556
	C135	C	0.881526	0.492949	0.885512
	C136	C	0.125552	0.879791	0.514780
	C137	C	0.124957	0.123318	0.497436
	C138	C	0.881815	0.122899	0.515055
	C139	C	0.881858	0.879337	0.497124
	C140	C	0.511413	0.124600	0.884133
	C141	C	0.493301	0.123695	0.126971
	C142	C	0.512575	0.880910	0.127104
	C143	C	0.494681	0.881556	0.884984
	C144	C	0.384255	0.887386	0.683238
	C145	C	0.621889	0.117341	0.681163
	C146	C	0.622602	0.887105	0.329118
	C147	C	0.383301	0.115735	0.329166
	C148	C	0.679384	0.382685	0.891589
	C149	C	0.678787	0.620432	0.121744
	C150	C	0.325871	0.622149	0.891959
	C151	C	0.328130	0.384197	0.122293
	C152	C	0.888582	0.677917	0.388154
	C153	C	0.119106	0.677576	0.626499
	C154	C	0.887879	0.324447	0.627082
	C155	C	0.117666	0.325124	0.388077
	C156	C	0.887345	0.382741	0.683452
	C157	C	0.118982	0.619785	0.683463
	C158	C	0.888116	0.620400	0.331570
	C159	C	0.118370	0.383360	0.332308
	C160	C	0.381973	0.681148	0.892213
	C161	C	0.622210	0.679073	0.121179
	C162	C	0.622495	0.324950	0.892037
	C163	C	0.383643	0.325176	0.121280
	C164	C	0.679664	0.887062	0.387095
	C165	C	0.679021	0.117591	0.622963
	C166	C	0.328047	0.886521	0.624546
	C167	C	0.326338	0.115655	0.387108
	C168	C	0.884004	0.387055	0.184028
	C169	C	0.121777	0.616613	0.183389
	C170	C	0.123183	0.386911	0.830448
	C171	C	0.882686	0.615715	0.828894
	C172	C	0.179705	0.883149	0.390469
	C173	C	0.179799	0.119516	0.621220
	C174	C	0.827454	0.119830	0.390876
	C175	C	0.827732	0.883234	0.621356
	C176	C	0.387591	0.179646	0.886581
	C177	C	0.617763	0.177700	0.124283
	C178	C	0.387913	0.826857	0.125172
	C179	C	0.618126	0.825415	0.886021
	C180	C	0.387926	0.884246	0.181497
	C181	C	0.617715	0.120633	0.181545
	C182	C	0.387514	0.122282	0.829124
	C183	C	0.618521	0.884005	0.830031
	C184	C	0.883342	0.178668	0.391606
	C185	C	0.123028	0.177864	0.621037
	C186	C	0.123690	0.824678	0.391361
	C187	C	0.884649	0.825205	0.621215
	C188	C	0.179983	0.387032	0.888902
	C189	C	0.178871	0.616861	0.125401
	C190	C	0.826442	0.386970	0.126027
	C191	C	0.826292	0.616284	0.887445
	C192	C	0.403418	0.096251	0.604808
	C193	C	0.603765	0.907689	0.606391
	C194	C	0.602471	0.096585	0.405434
	C195	C	0.403554	0.906244	0.404880
	C196	C	0.602518	0.401840	0.101975
	C197	C	0.601436	0.601423	0.911597
	C198	C	0.404028	0.602703	0.101640
	C199	C	0.403519	0.402434	0.911303
	C200	C	0.099598	0.601141	0.407625
	C201	C	0.908437	0.601188	0.605371
	C202	C	0.097945	0.401686	0.606122
	C203	C	0.907154	0.402225	0.408076
	C204	C	0.902511	0.596487	0.107519
	C205	C	0.103773	0.406971	0.108201
	C206	C	0.101623	0.595774	0.907571
	C207	C	0.904076	0.407309	0.907902
	C208	C	0.102950	0.901746	0.601067
	C209	C	0.102716	0.101673	0.411191
	C210	C	0.903798	0.100949	0.601253
	C211	C	0.903992	0.900831	0.410803
	C212	C	0.598378	0.102544	0.906004
	C213	C	0.407033	0.102094	0.104959
	C214	C	0.599000	0.902182	0.104705
	C215	C	0.408103	0.904180	0.907439
	Zn216	Zn	0.502984	0.002600	0.756222
	Zn217	Zn	0.503377	0.001833	0.255068
	Zn218	Zn	0.752658	0.501796	0.006537
	Zn219	Zn	0.253896	0.502115	0.007230
	Zn220	Zn	0.004355	0.751263	0.506479
	Zn221	Zn	0.002742	0.251613	0.506642
	Zn222	Zn	0.002847	0.501363	0.756476
	Zn223	Zn	0.003507	0.501808	0.258096
	Zn224	Zn	0.503135	0.753274	0.006440
	Zn225	Zn	0.502771	0.251974	0.006270
	Zn226	Zn	0.753706	0.001463	0.505600
	Zn227	Zn	0.253385	0.000710	0.505775
	N228	N	0.416893	0.965371	0.685051
	N229	N	0.589366	0.039405	0.684391
	N230	N	0.589266	0.964986	0.326812
	N231	N	0.416790	0.038175	0.326843
	N232	N	0.680983	0.416064	0.969391
	N233	N	0.679772	0.586536	0.044032
	N234	N	0.325371	0.587961	0.969517
	N235	N	0.326657	0.417907	0.044491
	N236	N	0.967003	0.679586	0.421209
	N237	N	0.040993	0.679556	0.592565
	N238	N	0.966274	0.322360	0.593794
	N239	N	0.039245	0.323099	0.420924
	N240	N	0.965319	0.416014	0.684792
	N241	N	0.040800	0.586621	0.684568
	N242	N	0.966294	0.586775	0.330072
	N243	N	0.040300	0.417210	0.330867
	N244	N	0.415801	0.682881	0.970042
	N245	N	0.588754	0.681129	0.043281
	N246	N	0.589139	0.323159	0.970104
	N247	N	0.416248	0.322906	0.043011
	N248	N	0.681068	0.964614	0.420369
	N249	N	0.681401	0.039587	0.590516
	N250	N	0.326296	0.963811	0.590436
	N251	N	0.325298	0.038043	0.420550
	N252	N	0.917095	0.464692	0.186344
	N253	N	0.089232	0.538766	0.186067
	N254	N	0.089479	0.464471	0.828331
	N255	N	0.916257	0.537983	0.827610
	N256	N	0.180880	0.916650	0.468261
	N257	N	0.181128	0.086295	0.543444
	N258	N	0.826373	0.085823	0.468400
	N259	N	0.825946	0.916262	0.543472
	N260	N	0.465743	0.181279	0.919805
	N261	N	0.539526	0.179817	0.091138
	N262	N	0.466256	0.824630	0.092148
	N263	N	0.539918	0.823842	0.919448
	N264	N	0.466153	0.917445	0.182842
	N265	N	0.539502	0.087622	0.183373
	N266	N	0.465674	0.088640	0.827624
	N267	N	0.540563	0.917935	0.829117
	N268	N	0.916312	0.180788	0.469831
	N269	N	0.089285	0.180082	0.543135
	N270	N	0.090847	0.822133	0.469683
	N271	N	0.917667	0.822525	0.542900
	N272	N	0.180932	0.464588	0.922418
	N273	N	0.181209	0.539097	0.092603
	N274	N	0.824540	0.464584	0.092602
	N275	N	0.825495	0.539324	0.922087
	O276	O	0.502596	0.537528	0.587123
	H277	H	0.507926	0.538565	0.597528
	H278	H	0.511507	0.537037	0.578857
	O279	O	0.022118	0.012636	-0.099463
	H280	H	0.027192	0.014952	-0.107773
	H281	H	0.005467	0.015163	-0.096685
	O282	O	0.482772	0.480641	0.542230
	H283	H	0.475059	0.478546	0.538137
	H284	H	0.479217	0.475963	0.537535
	O285	O	0.439554	0.472710	0.496764
	H286	H	0.436386	0.476014	0.495578
	H287	H	0.447354	0.476172	0.502306
	O288	O	0.959951	0.022964	-0.084663
	H289	H	0.955894	0.019003	-0.077499
	H290	H	0.963401	0.020810	-0.082408
	O291	O	-0.485662	0.479112	-0.453291
	H292	H	-0.484554	0.478441	-0.458298
	H293	H	-0.484501	0.478013	-0.458611
	O294	O	0.527146	0.542611	0.554165
	H295	H	0.525481	0.544093	0.556432
	H296	H	0.531523	0.543564	0.551774
	O297	O	0.439179	1.503609	-0.484587
	H298	H	0.433768	1.510672	-0.474770
	H299	H	0.439408	1.503712	-0.486028
	O300	O	1.017041	0.007919	0.902184
	H301	H	1.022087	0.005947	0.898721
	H302	H	1.022051	0.006482	0.895361
	O303	O	0.522070	0.490577	0.543206
	H304	H	0.515987	0.485681	0.543679
	H305	H	0.516994	0.490642	0.557643
	O306	O	0.000467	1.015625	0.918306
	H307	H	0.001698	1.014425	0.917053
	H308	H	0.002632	1.021691	0.909802
	O309	O	0.452054	0.525152	0.560164
	H310	H	0.454831	0.526591	0.564112
	H311	H	0.450274	0.520933	0.565995
