data_Molecule from HDF5

_cell_length_a		16.301201
_cell_length_b		16.603888
_cell_length_c		16.320902
_cell_angle_alpha	90.013638
_cell_angle_beta	89.893948
_cell_angle_gamma	90.105634
_symmetry_space_group_name_H-M	'P 1'
_symmetry_Int_Tables_number		1

loop_
	_symmetry_equiv_pos_as_xyz
	x,y,z

loop_
	_atom_site_label
	_atom_site_type_symbol
	_atom_site_fract_x
	_atom_site_fract_y
	_atom_site_fract_z
	H0	H	0.375846	0.837375	0.735228
	H1	H	0.590164	0.150267	0.732267
	H2	H	0.589730	0.837201	0.285842
	H3	H	0.379375	0.150592	0.289845
	H4	H	0.703032	0.390152	0.848763
	H5	H	0.701070	0.594965	0.170569
	H6	H	0.263065	0.600287	0.849645
	H7	H	0.263832	0.391176	0.168886
	H8	H	0.826148	0.715147	0.402783
	H9	H	0.141327	0.719071	0.621422
	H10	H	0.825724	0.271875	0.617194
	H11	H	0.144251	0.272977	0.403041
	H12	H	0.823088	0.389865	0.728531
	H13	H	0.142851	0.599105	0.731441
	H14	H	0.821938	0.593092	0.294422
	H15	H	0.144177	0.391118	0.288639
	H16	H	0.375721	0.719121	0.852291
	H17	H	0.593083	0.717276	0.167782
	H18	H	0.590456	0.271383	0.850563
	H19	H	0.374499	0.271712	0.167168
	H20	H	0.708695	0.836964	0.401745
	H21	H	0.707209	0.150421	0.615704
	H22	H	0.258791	0.836182	0.617759
	H23	H	0.262946	0.149925	0.405794
	H24	H	0.879367	0.337398	0.231013
	H25	H	0.091032	0.651413	0.233629
	H26	H	0.091001	0.338691	0.785717
	H27	H	0.876385	0.650259	0.785855
	H28	H	0.202224	0.890535	0.349159
	H29	H	0.204861	0.096907	0.669735
	H30	H	0.766488	0.095904	0.350818
	H31	H	0.762644	0.887369	0.669152
	H32	H	0.326084	0.218740	0.898801
	H33	H	0.640177	0.216289	0.115409
	H34	H	0.327043	0.767665	0.122176
	H35	H	0.641775	0.771861	0.901954
	H36	H	0.323641	0.889013	0.230773
	H37	H	0.642175	0.096773	0.227356
	H38	H	0.324439	0.099097	0.787016
	H39	H	0.642782	0.888976	0.787903
	H40	H	0.876984	0.217162	0.353614
	H41	H	0.094020	0.217727	0.668158
	H42	H	0.096061	0.767179	0.353756
	H43	H	0.873589	0.767236	0.666731
	H44	H	0.210127	0.339708	0.899812
	H45	H	0.207288	0.651602	0.116202
	H46	H	0.762906	0.336910	0.112456
	H47	H	0.761051	0.651386	0.904345
	H48	H	0.395609	0.103158	0.595595
	H49	H	0.573806	0.879602	0.604490
	H50	H	0.575524	0.104347	0.422620
	H51	H	0.395412	0.880426	0.418895
	H52	H	0.559915	0.401051	0.120749
	H53	H	0.571063	0.584140	0.895908
	H54	H	0.403146	0.580782	0.119807
	H55	H	0.397286	0.406644	0.895812
	H56	H	0.096294	0.578438	0.425094
	H57	H	0.873149	0.580116	0.590951
	H58	H	0.099108	0.406282	0.600005
	H59	H	0.866271	0.390529	0.421956
	H60	H	0.098639	0.402775	0.595999
	H61	H	0.870054	0.578891	0.600591
	H62	H	0.099172	0.580611	0.417866
	H63	H	0.874930	0.407774	0.432752
	H64	H	0.397242	0.587032	0.124682
	H65	H	0.570218	0.583334	0.896735
	H66	H	0.577499	0.394044	0.127965
	H67	H	0.399343	0.406542	0.896464
	H68	H	0.578903	0.107556	0.417622
	H69	H	0.565809	0.884405	0.595908
	H70	H	0.392867	0.104444	0.598051
	H71	H	0.395660	0.880937	0.421753
	H72	H	0.893514	0.607712	0.101545
	H73	H	0.077339	0.381535	0.099002
	H74	H	0.068491	0.605108	0.919955
	H75	H	0.891755	0.380207	0.915597
	H76	H	0.070662	0.909693	0.622393
	H77	H	0.070885	0.085202	0.396411
	H78	H	0.897281	0.083999	0.625710
	H79	H	0.905360	0.905440	0.399834
	H80	H	0.597806	0.090336	0.925618
	H81	H	0.367128	0.087120	0.095947
	H82	H	0.597807	0.905284	0.098680
	H83	H	0.367111	0.899071	0.922369
	H84	H	0.597574	0.903184	0.095327
	H85	H	0.369050	0.079664	0.096127
	H86	H	0.593174	0.077130	0.926227
	H87	H	0.373744	0.907801	0.931723
	H88	H	0.897272	0.081594	0.625059
	H89	H	0.073502	0.084492	0.395369
	H90	H	0.065443	0.903890	0.621103
	H91	H	0.896854	0.898023	0.393745
	H92	H	0.072947	0.604755	0.925419
	H93	H	0.068979	0.383137	0.101781
	H94	H	0.893924	0.606912	0.099995
	H95	H	0.898407	0.383466	0.919509
	H96	H	0.396424	0.104007	0.599732
	H97	H	0.577410	0.881740	0.593054
	H98	H	0.572507	0.105925	0.416793
	H99	H	0.393228	0.880252	0.420251
	H100	H	0.576685	0.413078	0.121855
	H101	H	0.569616	0.584490	0.895518
	H102	H	0.393773	0.578654	0.122424
	H103	H	0.398093	0.404727	0.895514
	H104	H	0.098695	0.585465	0.424252
	H105	H	0.869119	0.587475	0.596251
	H106	H	0.096898	0.407462	0.595304
	H107	H	0.868430	0.409911	0.411216
	H108	H	0.891957	0.607149	0.100511
	H109	H	0.071587	0.386127	0.093418
	H110	H	0.074634	0.607720	0.919001
	H111	H	0.890689	0.383402	0.923921
	H112	H	0.071795	0.903300	0.624627
	H113	H	0.072278	0.082732	0.396924
	H114	H	0.899008	0.083026	0.624258
	H115	H	0.894101	0.909652	0.397513
	H116	H	0.599076	0.081931	0.914392
	H117	H	0.366331	0.083315	0.102138
	H118	H	0.595786	0.907201	0.095524
	H119	H	0.371200	0.912062	0.918486
	C120	C	0.361350	0.001021	0.631925
	C121	C	0.605589	0.985259	0.630971
	C122	C	0.607504	0.002255	0.386616
	C123	C	0.362696	0.984424	0.388431
	C124	C	0.604251	0.371397	0.017912
	C125	C	0.603840	0.615366	1.001135
	C126	C	0.363785	0.615790	0.017675
	C127	C	0.363072	0.373015	1.000411
	C128	C	-0.007296	0.613681	0.389832
	C129	C	0.975424	0.615254	0.630478
	C130	C	-0.007148	0.373069	0.630571
	C131	C	0.975694	0.371661	0.388756
	C132	C	0.861411	0.503148	0.131888
	C133	C	0.105939	0.486527	0.131305
	C134	C	0.105576	0.502876	0.887752
	C135	C	0.860898	0.485714	0.887193
	C136	C	0.104472	0.872114	0.518422
	C137	C	0.105820	0.115748	0.501313
	C138	C	0.865071	0.114345	0.519433
	C139	C	0.863946	0.871215	0.501282
	C140	C	0.491957	0.115642	0.887944
	C141	C	0.473247	0.114961	0.129574
	C142	C	0.492348	0.872085	0.131285
	C143	C	0.475466	0.873849	0.890101
	C144	C	0.357817	0.883710	0.694072
	C145	C	0.608191	0.103411	0.691632
	C146	C	0.609113	0.884370	0.325890
	C147	C	0.361009	0.103263	0.329519
	C148	C	0.663905	0.371027	0.897387
	C149	C	0.662779	0.615311	0.122087
	C150	C	0.303143	0.618579	0.897713
	C151	C	0.302511	0.371913	0.120403
	C152	C	0.873115	0.674134	0.386109
	C153	C	0.094240	0.677459	0.636740
	C154	C	0.872997	0.312622	0.634155
	C155	C	0.096001	0.312542	0.385202
	C156	C	0.871753	0.371566	0.689655
	C157	C	0.094904	0.617905	0.692034
	C158	C	0.871256	0.613617	0.331968
	C159	C	0.096153	0.371359	0.328435
	C160	C	0.358971	0.677870	0.899014
	C161	C	0.608856	0.676008	0.120581
	C162	C	0.607888	0.311705	0.897994
	C163	C	0.357727	0.312323	0.119629
	C164	C	0.668233	0.884104	0.383686
	C165	C	0.666711	0.103225	0.633886
	C166	C	0.299485	0.883536	0.635857
	C167	C	0.302617	0.102791	0.386822
	C168	C	0.860299	0.384406	0.190859
	C169	C	0.108967	0.604334	0.192982
	C170	C	0.109187	0.385490	0.826031
	C171	C	0.858403	0.603581	0.826662
	C172	C	0.164448	0.870463	0.398077
	C173	C	0.165918	0.116460	0.621384
	C174	C	0.805712	0.115236	0.398916
	C175	C	0.802325	0.868558	0.620839
	C176	C	0.373298	0.177512	0.882335
	C177	C	0.593008	0.175438	0.132725
	C178	C	0.373854	0.809470	0.137621
	C179	C	0.594489	0.812693	0.885043
	C180	C	0.372334	0.869611	0.192118
	C181	C	0.593836	0.116137	0.188457
	C182	C	0.372505	0.118268	0.826261
	C183	C	0.595129	0.870984	0.828262
	C184	C	0.860604	0.175559	0.400363
	C185	C	0.110588	0.176467	0.620782
	C186	C	0.111283	0.809326	0.400130
	C187	C	0.858025	0.809020	0.619796
	C188	C	0.168709	0.386387	0.882830
	C189	C	0.166955	0.604599	0.134512
	C190	C	0.802294	0.384185	0.132244
	C191	C	0.800891	0.604039	0.885715
	C192	C	0.387613	0.082684	0.605570
	C193	C	0.579822	0.903349	0.605271
	C194	C	0.582837	0.084370	0.411764
	C195	C	0.387571	0.901912	0.413247
	C196	C	0.578718	0.395665	0.101585
	C197	C	0.577812	0.590924	0.917805
	C198	C	0.390335	0.589689	0.100573
	C199	C	0.390254	0.398489	0.917543
	C200	C	0.076233	0.588877	0.415110
	C201	C	0.892303	0.589632	0.603667
	C202	C	0.076342	0.398310	0.604832
	C203	C	0.891852	0.395607	0.414556
	C204	C	0.885995	0.585593	0.107496
	C205	C	0.080171	0.405008	0.105324
	C206	C	0.079343	0.584385	0.913834
	C207	C	0.886297	0.403716	0.912412
	C208	C	0.077231	0.897993	0.601070
	C209	C	0.079649	0.091194	0.417979
	C210	C	0.890376	0.089948	0.603085
	C211	C	0.891033	0.896880	0.418505
	C212	C	0.574977	0.090363	0.914588
	C213	C	0.389397	0.090483	0.104855
	C214	C	0.575349	0.897849	0.104245
	C215	C	0.392395	0.899119	0.916541
	Zn216	Zn	0.483857	-0.006489	0.760777
	Zn217	Zn	0.482704	-0.006078	0.258376
	Zn218	Zn	0.731550	0.494506	0.009660
	Zn219	Zn	0.235342	0.495152	0.008932
	Zn220	Zn	-0.014879	0.743104	0.509291
	Zn221	Zn	-0.014960	0.244391	0.510914
	Zn222	Zn	-0.016504	0.494012	0.757938
	Zn223	Zn	-0.015908	0.494383	0.261270
	Zn224	Zn	0.484105	0.744784	0.010163
	Zn225	Zn	0.482531	0.243710	0.009196
	Zn226	Zn	0.736311	-0.006873	0.510427
	Zn227	Zn	0.232866	-0.007514	0.509215
	N228	N	0.395491	0.957863	0.691877
	N229	N	0.570818	0.029144	0.689945
	N230	N	0.572091	0.958601	0.327449
	N231	N	0.397373	0.028536	0.330180
	N232	N	0.661915	0.407503	0.973074
	N233	N	0.659843	0.578234	0.046957
	N234	N	0.306076	0.580655	0.972447
	N235	N	0.305468	0.408985	0.045155
	N236	N	0.949692	0.674510	0.421177
	N237	N	0.018713	0.675999	0.599338
	N238	N	0.949322	0.313299	0.598247
	N239	N	0.019930	0.312598	0.421760
	N240	N	0.947494	0.408329	0.687740
	N241	N	0.020071	0.579990	0.688228
	N242	N	0.946828	0.576929	0.334089
	N243	N	0.020193	0.407155	0.330230
	N244	N	0.395868	0.676244	0.974761
	N245	N	0.572975	0.676302	0.044314
	N246	N	0.571557	0.311907	0.974030
	N247	N	0.394658	0.312874	0.043902
	N248	N	0.667428	0.958403	0.420745
	N249	N	0.665187	0.028814	0.596969
	N250	N	0.301662	0.957381	0.598029
	N251	N	0.303730	0.027972	0.422744
	N252	N	0.895852	0.459441	0.191155
	N253	N	0.071806	0.529912	0.191416
	N254	N	0.070765	0.459036	0.828875
	N255	N	0.894732	0.529007	0.827266
	N256	N	0.160356	0.908903	0.472588
	N257	N	0.163240	0.079545	0.546099
	N258	N	0.808450	0.077877	0.473775
	N259	N	0.805608	0.906397	0.546053
	N260	N	0.448491	0.175910	0.919866
	N261	N	0.516877	0.175033	0.097181
	N262	N	0.449451	0.811053	0.100394
	N263	N	0.519234	0.814425	0.922643
	N264	N	0.447067	0.907885	0.188396
	N265	N	0.518402	0.079196	0.186703
	N266	N	0.447351	0.080383	0.829613
	N267	N	0.520061	0.908445	0.831362
	N268	N	0.896798	0.175329	0.476469
	N269	N	0.073959	0.176143	0.545000
	N270	N	0.074574	0.810194	0.476010
	N271	N	0.895583	0.810580	0.544353
	N272	N	0.166518	0.460373	0.920313
	N273	N	0.165252	0.530653	0.096829
	N274	N	0.802676	0.458941	0.096272
	N275	N	0.802193	0.529647	0.922528
	O276	O	0.410503	0.648938	0.641382
	H277	H	0.388267	0.650794	0.650354
	H278	H	0.410797	0.628445	0.649240
	O279	O	1.161631	-0.189447	0.834046
	H280	H	1.173942	-0.136883	0.821739
	H281	H	1.147107	-0.201327	0.848522
	O282	O	-0.149836	1.103357	0.797313
	H283	H	-0.156373	1.119200	0.787371
	H284	H	-0.180326	1.113843	0.785101
	O285	O	0.006492	1.211121	0.226095
	H286	H	0.033992	1.226318	0.235634
	H287	H	0.025149	1.224341	0.229112
	O288	O	1.504387	1.665219	-0.492778
	H289	H	1.505772	1.656482	-0.494862
	H290	H	1.483830	1.669591	-0.473899
	O291	O	0.478152	0.416866	0.669467
	H292	H	0.495043	0.409094	0.662412
	H293	H	0.497278	0.422373	0.671380
	O294	O	-0.055983	0.123775	0.959133
	H295	H	-0.059020	0.145114	0.946970
	H296	H	-0.052081	0.114616	0.974844
	O297	O	0.284809	0.471357	0.600973
	H298	H	0.283627	0.463809	0.605616
	H299	H	0.301815	0.470537	0.621476
	O300	O	0.962689	0.963809	0.799074
	H301	H	0.969614	0.957192	0.812798
	H302	H	0.951722	0.979722	0.791059
	O303	O	0.781007	0.785688	0.038297
	H304	H	0.783863	0.785051	0.030382
	H305	H	0.767127	0.781108	0.031515
	O306	O	0.509776	0.280579	0.303402
	H307	H	0.529324	0.276613	0.288370
	H308	H	0.541966	0.275682	0.293808
	O309	O	0.907951	-0.038169	0.007566
	H310	H	0.893949	-0.030382	-0.000321
	H311	H	0.911948	-0.055730	0.019409
	O312	O	-0.108559	0.993640	0.931007
	H313	H	-0.119152	0.981816	0.918264
	H314	H	-0.097577	0.973400	0.927156
	O315	O	0.554143	0.702985	0.383959
	H316	H	0.533116	0.712198	0.364229
	H317	H	0.553493	0.704471	0.393139
	O318	O	1.001891	-0.220420	-0.204806
	H319	H	1.020308	-0.239276	-0.227617
	H320	H	1.002937	-0.213496	-0.207528
	O321	O	0.074615	0.022057	-0.151949
	H322	H	0.067805	0.042287	-0.153950
	H323	H	0.074235	0.040840	-0.148109
	O324	O	0.646393	0.369980	0.423125
	H325	H	0.635740	0.384705	0.421684
	H326	H	0.660470	0.377041	0.447487
	O327	O	0.450862	0.428983	0.364733
	H328	H	0.461652	0.422131	0.364341
	H329	H	0.454952	0.436802	0.376481
	O330	O	0.356730	1.551293	0.316563
	H331	H	0.355613	1.545323	0.321412
	H332	H	0.347330	1.542784	0.310933
	O333	O	0.433994	0.398486	0.558060
	H334	H	0.454058	0.374949	0.544924
	H335	H	0.430556	0.394607	0.572094
	O336	O	-0.119300	0.149694	0.149343
	H337	H	-0.104759	0.150625	0.148970
	H338	H	-0.115227	0.134955	0.154893
	O339	O	0.171642	1.178747	0.198047
	H340	H	0.182035	1.139366	0.194687
	H341	H	0.183118	1.192871	0.182099
	O342	O	-0.185508	1.104690	1.002366
	H343	H	-0.187123	1.103753	0.985516
	H344	H	-0.203146	1.114945	1.026681
	O345	O	0.688197	0.346668	-0.695610
	H346	H	0.686328	0.377313	-0.689020
	H347	H	0.702680	0.355633	-0.707615
	O348	O	0.645718	0.288896	0.670986
	H349	H	0.643738	0.275403	0.664961
	H350	H	0.643334	0.296806	0.682116
	O351	O	0.401065	1.286419	1.709225
	H352	H	0.392209	1.248687	1.733906
	H353	H	0.441270	1.285516	1.689476
	O354	O	0.438829	0.705524	-0.545399
	H355	H	0.424022	0.709727	-0.560353
	H356	H	0.417176	0.703033	-0.528460
	O357	O	0.151609	-0.026264	0.850460
	H358	H	0.169332	-0.019789	0.824674
	H359	H	0.136512	-0.015033	0.859497
	O360	O	0.282512	0.422943	0.714331
	H361	H	0.299130	0.411783	0.706183
	H362	H	0.273180	0.411875	0.743919
	O363	O	-0.131368	-0.053391	0.989145
	H364	H	-0.125009	-0.047226	0.985417
	H365	H	-0.113461	-0.064718	0.980575
	O366	O	0.610747	0.515490	0.421284
	H367	H	0.606047	0.532918	0.422128
	H368	H	0.602284	0.528996	0.417778
	O369	O	0.690195	0.512895	0.709111
	H370	H	0.681823	0.551562	0.692915
	H371	H	0.721482	0.508637	0.740170
	O372	O	1.141037	-0.029170	1.100033
	H373	H	1.119102	-0.037419	1.082912
	H374	H	1.135772	-0.048501	1.096440
	O375	O	0.349231	0.460209	0.383502
	H376	H	0.348224	0.446664	0.379871
	H377	H	0.352944	0.442911	0.380802
	O378	O	0.597546	0.364683	0.615798
	H379	H	0.610539	0.369626	0.612469
	H380	H	0.615637	0.348513	0.606367
	O381	O	0.439898	0.404478	0.476132
	H382	H	0.443985	0.391940	0.459387
	H383	H	0.418235	0.400274	0.494979
	O384	O	0.277766	0.286183	0.531853
	H385	H	0.271160	0.288444	0.553754
	H386	H	0.271306	0.267058	0.543568
	O387	O	0.143091	0.154921	0.903162
	H388	H	0.140525	0.169140	0.925535
	H389	H	0.146199	0.130013	0.933092
	O390	O	-0.036606	-0.212638	0.217056
	H391	H	-0.060895	-0.214041	0.217642
	H392	H	-0.025839	-0.230912	0.229623
	O393	O	0.759514	1.223621	1.151670
	H394	H	0.746741	1.248334	1.163886
	H395	H	0.776155	1.223413	1.182144
	O396	O	1.010141	0.216911	0.000064
	H397	H	1.002157	0.206228	0.017921
	H398	H	0.994155	0.212921	-0.021380
	O399	O	1.197620	0.208689	1.030795
	H400	H	1.180087	0.210132	1.022848
	H401	H	1.223524	0.230460	1.034610
	O402	O	0.807983	0.805131	1.203229
	H403	H	0.803158	0.798885	1.168902
	H404	H	0.814845	0.835334	1.208373
	O405	O	1.529894	1.472371	0.496469
	H406	H	1.521506	1.484577	0.509336
	H407	H	1.559913	1.486727	0.493243
	O408	O	0.377483	-0.294379	0.571884
	H409	H	0.351971	-0.316976	0.572518
	H410	H	0.360539	-0.283205	0.565948
	O411	O	1.144348	1.016912	0.218356
	H412	H	1.151786	1.008140	0.236621
	H413	H	1.126324	1.015450	0.219136
	O414	O	0.275873	0.598778	0.422408
	H415	H	0.266557	0.591644	0.417577
	H416	H	0.283649	0.604248	0.418810
	O417	O	0.802996	-0.006059	0.905865
	H418	H	0.812625	-0.011050	0.914364
	H419	H	0.791926	-0.004950	0.932964
	O420	O	0.043582	-0.009541	0.184097
	H421	H	0.038196	-0.010556	0.189222
	H422	H	0.050784	-0.003137	0.173485
	O423	O	0.544496	0.512934	0.580197
	H424	H	0.538431	0.523810	0.577265
	H425	H	0.545108	0.510738	0.592386
	O426	O	0.690383	0.694111	0.541542
	H427	H	0.674046	0.709095	0.528014
	H428	H	0.698340	0.716178	0.540767
	O429	O	0.071561	0.798043	0.098468
	H430	H	0.079885	0.800104	0.095708
	H431	H	0.071187	0.787826	0.096839
	O432	O	0.657705	0.683611	0.692116
	H433	H	0.660298	0.682489	0.653607
	H434	H	0.625318	0.692260	0.706605
	O435	O	0.646376	0.502726	0.469895
	H436	H	0.640604	0.524482	0.487165
	H437	H	0.645702	0.514570	0.458004
	O438	O	-0.106177	-0.172599	-0.029645
	H439	H	-0.095198	-0.167689	-0.045869
	H440	H	-0.103939	-0.176152	-0.024551
	O441	O	1.782873	0.113609	-0.068000
	H442	H	1.775792	0.123676	-0.034741
	H443	H	1.806973	0.110753	-0.064252
	O444	O	-0.223276	0.970007	1.217655
	H445	H	-0.238702	0.976230	1.251007
	H446	H	-0.195732	0.972469	1.222432
	O447	O	1.189664	0.783340	-0.005686
	H448	H	1.207499	0.782180	-0.010266
	H449	H	1.182380	0.780458	-0.020663
	O450	O	1.150722	0.013575	-0.047959
	H451	H	1.145467	0.000105	-0.053373
	H452	H	1.130617	0.021069	-0.033028
	O453	O	0.335098	0.518517	0.423668
	H454	H	0.339076	0.495696	0.410159
	H455	H	0.332091	0.525015	0.454609
