data_Molecule from HDF5

_cell_length_a		16.173327
_cell_length_b		16.285747
_cell_length_c		16.253346
_cell_angle_alpha	89.994887
_cell_angle_beta	89.895616
_cell_angle_gamma	90.053869
_symmetry_space_group_name_H-M	'P 1'
_symmetry_Int_Tables_number		1

loop_
	_symmetry_equiv_pos_as_xyz
	x,y,z

loop_
	_atom_site_label
	_atom_site_type_symbol
	_atom_site_fract_x
	_atom_site_fract_y
	_atom_site_fract_z
	H0	H	0.401038	0.836391	0.715629
	H1	H	0.597430	0.164106	0.713344
	H2	H	0.598484	0.836190	0.284794
	H3	H	0.401791	0.163893	0.286203
	H4	H	0.713479	0.402760	0.835135
	H5	H	0.712552	0.596815	0.164508
	H6	H	0.287972	0.596059	0.835207
	H7	H	0.287092	0.402886	0.164259
	H8	H	0.834400	0.713442	0.402313
	H9	H	0.163835	0.714391	0.598130
	H10	H	0.835288	0.286524	0.598587
	H11	H	0.164084	0.287179	0.400900
	H12	H	0.835626	0.400961	0.714544
	H13	H	0.164964	0.599290	0.713000
	H14	H	0.834163	0.598260	0.286840
	H15	H	0.163653	0.401941	0.285047
	H16	H	0.401905	0.714234	0.836186
	H17	H	0.598909	0.715165	0.163727
	H18	H	0.599605	0.285159	0.836395
	H19	H	0.400845	0.285685	0.163324
	H20	H	0.713543	0.836381	0.402472
	H21	H	0.713539	0.164206	0.597529
	H22	H	0.285493	0.836259	0.598155
	H23	H	0.287525	0.164339	0.403364
	H24	H	0.901095	0.336091	0.214268
	H25	H	0.098434	0.663945	0.213527
	H26	H	0.099252	0.336362	0.784667
	H27	H	0.902991	0.663273	0.786182
	H28	H	0.212834	0.902806	0.335200
	H29	H	0.212254	0.097005	0.664166
	H30	H	0.787502	0.096864	0.335627
	H31	H	0.786762	0.902529	0.664532
	H32	H	0.335247	0.213238	0.902516
	H33	H	0.664138	0.214130	0.098240
	H34	H	0.335739	0.786303	0.098288
	H35	H	0.664638	0.786464	0.901296
	H36	H	0.335216	0.902380	0.212793
	H37	H	0.664748	0.098645	0.212954
	H38	H	0.335534	0.098739	0.786557
	H39	H	0.665150	0.902863	0.786679
	H40	H	0.900971	0.215474	0.336558
	H41	H	0.098489	0.215455	0.663105
	H42	H	0.099100	0.784955	0.335915
	H43	H	0.900925	0.784563	0.663648
	H44	H	0.213618	0.335640	0.901994
	H45	H	0.214382	0.664122	0.096655
	H46	H	0.785093	0.336420	0.098717
	H47	H	0.787458	0.664263	0.902919
	H48	H	0.407533	0.116867	0.595747
	H49	H	0.595053	0.882191	0.593896
	H50	H	0.597799	0.119155	0.402071
	H51	H	0.407041	0.884297	0.410216
	H52	H	0.588442	0.394424	0.119474
	H53	H	0.596838	0.583216	0.884519
	H54	H	0.410378	0.590616	0.115487
	H55	H	0.405783	0.399869	0.880624
	H56	H	0.115772	0.588603	0.407853
	H57	H	0.882278	0.589976	0.593720
	H58	H	0.116471	0.409245	0.590191
	H59	H	0.883912	0.412001	0.411876
	H60	H	0.118168	0.408120	0.595169
	H61	H	0.881672	0.592779	0.596614
	H62	H	0.118821	0.594016	0.402452
	H63	H	0.880364	0.409212	0.400197
	H64	H	0.408717	0.598267	0.117702
	H65	H	0.581961	0.596253	0.885521
	H66	H	0.604124	0.408641	0.119805
	H67	H	0.403185	0.409129	0.881746
	H68	H	0.587522	0.115456	0.404145
	H69	H	0.591767	0.883444	0.595053
	H70	H	0.406982	0.116354	0.591237
	H71	H	0.403078	0.881223	0.405244
	H72	H	0.910641	0.613521	0.087029
	H73	H	0.086024	0.384088	0.098042
	H74	H	0.093215	0.615261	0.908163
	H75	H	0.918216	0.385007	0.903364
	H76	H	0.094754	0.903509	0.618234
	H77	H	0.083300	0.085771	0.387762
	H78	H	0.917607	0.099374	0.615585
	H79	H	0.899624	0.901212	0.379513
	H80	H	0.618047	0.092191	0.905923
	H81	H	0.381427	0.099354	0.088087
	H82	H	0.619836	0.909455	0.099681
	H83	H	0.386067	0.918637	0.907116
	H84	H	0.619338	0.900526	0.091176
	H85	H	0.384764	0.086081	0.091944
	H86	H	0.618991	0.094765	0.905414
	H87	H	0.377904	0.901755	0.899101
	H88	H	0.896837	0.100937	0.621739
	H89	H	0.090903	0.107584	0.379430
	H90	H	0.093448	0.909497	0.616083
	H91	H	0.905947	0.915440	0.385436
	H92	H	0.096700	0.617890	0.905890
	H93	H	0.093325	0.385439	0.085523
	H94	H	0.897917	0.619288	0.094145
	H95	H	0.903223	0.385288	0.918331
	H96	H	0.403719	0.117411	0.593972
	H97	H	0.592573	0.883700	0.591535
	H98	H	0.594906	0.115885	0.412385
	H99	H	0.409356	0.883363	0.403655
	H100	H	0.584979	0.414549	0.112305
	H101	H	0.599888	0.601742	0.878786
	H102	H	0.402898	0.592379	0.118060
	H103	H	0.411444	0.406119	0.883771
	H104	H	0.116784	0.596558	0.410048
	H105	H	0.881840	0.593693	0.592358
	H106	H	0.118095	0.404115	0.591437
	H107	H	0.880693	0.400545	0.409266
	H108	H	0.911310	0.617814	0.102141
	H109	H	0.100343	0.380521	0.097416
	H110	H	0.092938	0.616274	0.903616
	H111	H	0.898394	0.377891	0.898860
	H112	H	0.088912	0.905526	0.615731
	H113	H	0.106955	0.089042	0.380255
	H114	H	0.904733	0.082602	0.614227
	H115	H	0.915743	0.902048	0.384587
	H116	H	0.617660	0.094025	0.907310
	H117	H	0.379217	0.095083	0.101508
	H118	H	0.615661	0.912528	0.088583
	H119	H	0.384783	0.901998	0.918502
	C120	C	0.377819	0.008701	0.622453
	C121	C	0.621574	0.991447	0.621909
	C122	C	0.621616	0.008573	0.377972
	C123	C	0.378668	0.991563	0.378505
	C124	C	0.621645	0.377747	0.008585
	C125	C	0.621164	0.621659	0.991746
	C126	C	0.378997	0.621713	0.008524
	C127	C	0.378801	0.377673	0.990956
	C128	C	0.007812	0.621408	0.378343
	C129	C	0.991046	0.620993	0.621815
	C130	C	0.008875	0.378594	0.621300
	C131	C	0.990716	0.379021	0.378564
	C132	C	0.878050	0.508324	0.122481
	C133	C	0.121706	0.491749	0.121651
	C134	C	0.122256	0.508378	0.877950
	C135	C	0.878588	0.491196	0.878564
	C136	C	0.121455	0.877882	0.508248
	C137	C	0.121658	0.122101	0.490975
	C138	C	0.878419	0.121911	0.508683
	C139	C	0.878154	0.877534	0.491319
	C140	C	0.508887	0.121652	0.878470
	C141	C	0.491189	0.121755	0.121539
	C142	C	0.509070	0.878758	0.121642
	C143	C	0.491667	0.879327	0.879174
	C144	C	0.380433	0.885320	0.677511
	C145	C	0.618716	0.115015	0.676156
	C146	C	0.619193	0.885281	0.322676
	C147	C	0.381436	0.115098	0.324017
	C148	C	0.676149	0.381431	0.884674
	C149	C	0.675161	0.617797	0.115566
	C150	C	0.325061	0.617569	0.884474
	C151	C	0.325067	0.382092	0.115390
	C152	C	0.883455	0.675815	0.381914
	C153	C	0.115005	0.676598	0.618429
	C154	C	0.884507	0.323888	0.618977
	C155	C	0.114765	0.324362	0.380639
	C156	C	0.884814	0.380829	0.676589
	C157	C	0.115404	0.619166	0.675459
	C158	C	0.883532	0.618571	0.324433
	C159	C	0.114812	0.381815	0.323394
	C160	C	0.381616	0.676193	0.884871
	C161	C	0.619009	0.676728	0.115077
	C162	C	0.619678	0.322947	0.885088
	C163	C	0.381205	0.323608	0.114803
	C164	C	0.676032	0.884970	0.381221
	C165	C	0.675952	0.115256	0.618280
	C166	C	0.323241	0.885080	0.619144
	C167	C	0.324583	0.115269	0.382086
	C168	C	0.880542	0.384928	0.176667
	C169	C	0.119187	0.614990	0.176257
	C170	C	0.119669	0.385014	0.822918
	C171	C	0.881979	0.614581	0.824118
	C172	C	0.176116	0.881383	0.384654
	C173	C	0.175410	0.118342	0.615029
	C174	C	0.824493	0.118343	0.384733
	C175	C	0.823983	0.881669	0.615307
	C176	C	0.384499	0.175596	0.881938
	C177	C	0.615060	0.176504	0.118679
	C178	C	0.384937	0.824264	0.118418
	C179	C	0.615674	0.824409	0.880873
	C180	C	0.384658	0.881611	0.175816
	C181	C	0.615314	0.119003	0.175689
	C182	C	0.384737	0.119099	0.824049
	C183	C	0.615825	0.882125	0.823916
	C184	C	0.880516	0.177348	0.385380
	C185	C	0.118736	0.176812	0.614534
	C186	C	0.119557	0.822770	0.384880
	C187	C	0.880558	0.823054	0.614972
	C188	C	0.176230	0.384563	0.881288
	C189	C	0.176614	0.615170	0.117901
	C190	C	0.823111	0.385150	0.119108
	C191	C	0.824726	0.615064	0.882106
	C192	C	0.399548	0.094876	0.600254
	C193	C	0.599775	0.905290	0.600001
	C194	C	0.599940	0.094657	0.399736
	C195	C	0.400089	0.905332	0.399957
	C196	C	0.599280	0.399497	0.094798
	C197	C	0.599437	0.600073	0.905301
	C198	C	0.400840	0.600140	0.094785
	C199	C	0.400275	0.398669	0.904491
	C200	C	0.094720	0.599468	0.400220
	C201	C	0.904275	0.598822	0.600433
	C202	C	0.095340	0.400683	0.598784
	C203	C	0.903917	0.401010	0.400762
	C204	C	0.900154	0.594783	0.100813
	C205	C	0.099820	0.405421	0.099956
	C206	C	0.100739	0.594245	0.899498
	C207	C	0.900286	0.404964	0.900337
	C208	C	0.099034	0.899658	0.594549
	C209	C	0.100271	0.100447	0.404726
	C210	C	0.900056	0.100618	0.594917
	C211	C	0.900582	0.899618	0.405192
	C212	C	0.595743	0.100045	0.899966
	C213	C	0.404138	0.099894	0.100094
	C214	C	0.595936	0.900852	0.099653
	C215	C	0.405169	0.901093	0.901544
	Zn216	Zn	0.499930	0.000216	0.750609
	Zn217	Zn	0.499656	0.000359	0.249431
	Zn218	Zn	0.749876	0.500116	-0.000151
	Zn219	Zn	0.250842	0.499517	-0.000552
	Zn220	Zn	-0.000251	0.748996	0.499682
	Zn221	Zn	-0.000310	0.250870	0.499781
	Zn222	Zn	0.000692	0.499579	0.749760
	Zn223	Zn	-0.000526	0.500139	0.250411
	Zn224	Zn	0.500457	0.750669	0.000093
	Zn225	Zn	0.499952	0.249099	-0.000054
	Zn226	Zn	0.750279	-0.000127	0.500024
	Zn227	Zn	0.249545	-0.000173	0.499989
	N228	N	0.413791	0.963074	0.679350
	N229	N	0.585558	0.037282	0.678204
	N230	N	0.586013	0.963117	0.320581
	N231	N	0.414390	0.037199	0.321710
	N232	N	0.677465	0.414915	0.962423
	N233	N	0.676698	0.584367	0.037838
	N234	N	0.323251	0.584413	0.962283
	N235	N	0.323345	0.415251	0.037480
	N236	N	0.961873	0.677688	0.414668
	N237	N	0.036638	0.677809	0.585517
	N238	N	0.962660	0.322348	0.585375
	N239	N	0.036552	0.322618	0.414132
	N240	N	0.962956	0.414189	0.678179
	N241	N	0.037518	0.585590	0.677868
	N242	N	0.961911	0.585615	0.322319
	N243	N	0.036669	0.414981	0.322080
	N244	N	0.414414	0.678842	0.962930
	N245	N	0.585979	0.678905	0.037146
	N246	N	0.586343	0.320640	0.963081
	N247	N	0.413943	0.320875	0.036760
	N248	N	0.677566	0.962410	0.414909
	N249	N	0.678070	0.037353	0.585304
	N250	N	0.321526	0.962651	0.585521
	N251	N	0.323006	0.037743	0.415500
	N252	N	0.914020	0.462588	0.178768
	N253	N	0.085802	0.537196	0.178509
	N254	N	0.086596	0.462726	0.820947
	N255	N	0.914714	0.536613	0.821858
	N256	N	0.177303	0.914891	0.462298
	N257	N	0.177120	0.084852	0.537285
	N258	N	0.822933	0.084597	0.462320
	N259	N	0.822500	0.914818	0.537515
	N260	N	0.462779	0.177257	0.914936
	N261	N	0.536807	0.178118	0.085864
	N262	N	0.463295	0.822431	0.085548
	N263	N	0.537672	0.822579	0.914662
	N264	N	0.462874	0.914907	0.177782
	N265	N	0.537050	0.085662	0.177559
	N266	N	0.463002	0.086160	0.821942
	N267	N	0.537783	0.915753	0.823115
	N268	N	0.913533	0.179512	0.463222
	N269	N	0.086000	0.179409	0.536503
	N270	N	0.085806	0.820813	0.462692
	N271	N	0.913687	0.820649	0.536925
	N272	N	0.177967	0.461972	0.915155
	N273	N	0.178256	0.537388	0.084636
	N274	N	0.821420	0.462989	0.086112
	N275	N	0.822536	0.537290	0.915304
