data_Molecule from HDF5

_cell_length_a		16.220505
_cell_length_b		16.283254
_cell_length_c		16.234732
_cell_angle_alpha	89.856608
_cell_angle_beta	90.048588
_cell_angle_gamma	89.925930
_symmetry_space_group_name_H-M	'P 1'
_symmetry_Int_Tables_number		1

loop_
	_symmetry_equiv_pos_as_xyz
	x,y,z

loop_
	_atom_site_label
	_atom_site_type_symbol
	_atom_site_fract_x
	_atom_site_fract_y
	_atom_site_fract_z
	H0	H	0.398862	0.835306	0.717323
	H1	H	0.591673	0.163602	0.714229
	H2	H	0.593939	0.835037	0.288398
	H3	H	0.396708	0.162782	0.287893
	H4	H	0.708062	0.403604	0.836912
	H5	H	0.710979	0.596819	0.165703
	H6	H	0.283141	0.597633	0.836725
	H7	H	0.283549	0.401744	0.165318
	H8	H	0.832605	0.713195	0.402350
	H9	H	0.161455	0.711608	0.599037
	H10	H	0.832452	0.283794	0.600427
	H11	H	0.160243	0.284076	0.402267
	H12	H	0.832428	0.399668	0.715386
	H13	H	0.161246	0.595482	0.714458
	H14	H	0.832219	0.597688	0.286970
	H15	H	0.160852	0.401310	0.288826
	H16	H	0.397147	0.715623	0.838495
	H17	H	0.595719	0.712625	0.166576
	H18	H	0.595496	0.284823	0.837832
	H19	H	0.398085	0.285420	0.165429
	H20	H	0.708781	0.834498	0.405858
	H21	H	0.709996	0.162705	0.600771
	H22	H	0.283408	0.834241	0.600119
	H23	H	0.282542	0.162559	0.405436
	H24	H	0.899234	0.335060	0.215319
	H25	H	0.093513	0.662858	0.214395
	H26	H	0.095074	0.334814	0.788165
	H27	H	0.898370	0.662538	0.786066
	H28	H	0.209872	0.901368	0.337302
	H29	H	0.208143	0.095334	0.666630
	H30	H	0.781557	0.096895	0.338207
	H31	H	0.783087	0.901144	0.666706
	H32	H	0.332018	0.214653	0.902825
	H33	H	0.660222	0.212685	0.100814
	H34	H	0.331631	0.784250	0.101660
	H35	H	0.660235	0.785406	0.904181
	H36	H	0.331800	0.901381	0.215657
	H37	H	0.660560	0.095680	0.215157
	H38	H	0.331341	0.097543	0.789132
	H39	H	0.660736	0.901349	0.788636
	H40	H	0.896616	0.213275	0.337880
	H41	H	0.093435	0.212018	0.665335
	H42	H	0.093351	0.785847	0.336729
	H43	H	0.897466	0.782380	0.665855
	H44	H	0.210540	0.335655	0.903375
	H45	H	0.210941	0.662534	0.099398
	H46	H	0.782050	0.335110	0.099939
	H47	H	0.782456	0.663381	0.903256
	H48	H	0.412533	0.113240	0.597880
	H49	H	0.595236	0.878562	0.604719
	H50	H	0.584691	0.113803	0.409339
	H51	H	0.394525	0.878871	0.406850
	H52	H	0.597567	0.403049	0.122323
	H53	H	0.580220	0.588164	0.888464
	H54	H	0.397108	0.592031	0.121166
	H55	H	0.392380	0.407385	0.880565
	H56	H	0.115908	0.592529	0.400242
	H57	H	0.879115	0.588735	0.598618
	H58	H	0.111745	0.407497	0.591428
	H59	H	0.877450	0.399602	0.409167
	H60	H	0.114205	0.406470	0.598727
	H61	H	0.877651	0.597631	0.594211
	H62	H	0.114861	0.598345	0.412379
	H63	H	0.880781	0.408844	0.411913
	H64	H	0.405921	0.587150	0.116677
	H65	H	0.588598	0.603578	0.882318
	H66	H	0.587969	0.413070	0.116285
	H67	H	0.409695	0.416501	0.888598
	H68	H	0.592111	0.115998	0.412208
	H69	H	0.580165	0.884743	0.597886
	H70	H	0.395994	0.114967	0.585525
	H71	H	0.408828	0.881445	0.402776
	H72	H	0.908928	0.612688	0.089839
	H73	H	0.087523	0.382706	0.095469
	H74	H	0.083627	0.613506	0.910446
	H75	H	0.895995	0.382009	0.911095
	H76	H	0.098218	0.910150	0.619649
	H77	H	0.086545	0.088672	0.386743
	H78	H	0.902158	0.091662	0.619648
	H79	H	0.907026	0.913281	0.388270
	H80	H	0.613114	0.093694	0.911462
	H81	H	0.379409	0.095949	0.087128
	H82	H	0.608000	0.913128	0.083982
	H83	H	0.382618	0.911197	0.917617
	H84	H	0.615531	0.912034	0.108935
	H85	H	0.380672	0.084458	0.096956
	H86	H	0.613012	0.090914	0.907872
	H87	H	0.377851	0.911627	0.901126
	H88	H	0.904444	0.090450	0.618765
	H89	H	0.087604	0.097429	0.383506
	H90	H	0.080340	0.908699	0.615249
	H91	H	0.907185	0.896793	0.384022
	H92	H	0.095251	0.616844	0.910277
	H93	H	0.089880	0.382930	0.091858
	H94	H	0.895718	0.617115	0.090935
	H95	H	0.901804	0.379994	0.901785
	H96	H	0.394670	0.120533	0.605511
	H97	H	0.594379	0.882348	0.588001
	H98	H	0.589670	0.117127	0.404300
	H99	H	0.404843	0.885045	0.416980
	H100	H	0.583093	0.399169	0.118454
	H101	H	0.597722	0.587718	0.883457
	H102	H	0.406152	0.596882	0.119480
	H103	H	0.410323	0.396065	0.883127
	H104	H	0.111385	0.585818	0.410753
	H105	H	0.881700	0.589258	0.588925
	H106	H	0.115208	0.401040	0.594111
	H107	H	0.877861	0.407408	0.402710
	H108	H	0.904596	0.617411	0.102222
	H109	H	0.092332	0.381378	0.096154
	H110	H	0.088430	0.617426	0.900273
	H111	H	0.907679	0.384619	0.910589
	H112	H	0.089188	0.894367	0.621941
	H113	H	0.094452	0.091920	0.382885
	H114	H	0.903609	0.093061	0.619678
	H115	H	0.892754	0.905546	0.382603
	H116	H	0.614619	0.095588	0.907963
	H117	H	0.375240	0.098150	0.101499
	H118	H	0.617239	0.891088	0.094471
	H119	H	0.376300	0.897328	0.910185
	C120	C	0.373846	0.007527	0.624518
	C121	C	0.617843	0.990378	0.624686
	C122	C	0.617199	0.007138	0.380757
	C123	C	0.374676	0.990409	0.380998
	C124	C	0.617926	0.377340	0.010306
	C125	C	0.617409	0.620851	0.993680
	C126	C	0.374582	0.620952	0.010372
	C127	C	0.375251	0.377930	0.992589
	C128	C	0.005245	0.620463	0.379408
	C129	C	0.988223	0.619879	0.622405
	C130	C	0.004783	0.376663	0.622995
	C131	C	0.987698	0.377266	0.379964
	C132	C	0.874764	0.507495	0.122784
	C133	C	0.118121	0.490587	0.122764
	C134	C	0.117493	0.507531	0.879572
	C135	C	0.873866	0.490430	0.878867
	C136	C	0.117495	0.877031	0.510021
	C137	C	0.117633	0.120283	0.493104
	C138	C	0.874855	0.120060	0.510515
	C139	C	0.874629	0.877075	0.493651
	C140	C	0.504764	0.121471	0.880529
	C141	C	0.487338	0.120531	0.123407
	C142	C	0.504415	0.877426	0.123702
	C143	C	0.487702	0.878344	0.881011
	C144	C	0.377399	0.883954	0.679508
	C145	C	0.613747	0.114220	0.677994
	C146	C	0.614378	0.883768	0.326447
	C147	C	0.376747	0.113935	0.325966
	C148	C	0.671689	0.381496	0.886163
	C149	C	0.672939	0.617538	0.117007
	C150	C	0.320170	0.618527	0.886294
	C151	C	0.320985	0.380952	0.116430
	C152	C	0.881458	0.675095	0.382151
	C153	C	0.112217	0.674263	0.619417
	C154	C	0.881355	0.321642	0.620613
	C155	C	0.111180	0.321982	0.382342
	C156	C	0.881380	0.379167	0.677848
	C157	C	0.112220	0.616716	0.676941
	C158	C	0.881331	0.617664	0.324796
	C159	C	0.111544	0.380196	0.325781
	C160	C	0.376946	0.676753	0.887071
	C161	C	0.615531	0.674907	0.117537
	C162	C	0.615577	0.322826	0.886616
	C163	C	0.378059	0.323308	0.116509
	C164	C	0.671505	0.883570	0.384617
	C165	C	0.672446	0.113759	0.621686
	C166	C	0.320218	0.883579	0.621302
	C167	C	0.319924	0.113814	0.384284
	C168	C	0.878034	0.383865	0.177521
	C169	C	0.114897	0.613847	0.177329
	C170	C	0.115227	0.383847	0.825702
	C171	C	0.877299	0.613872	0.823916
	C172	C	0.172182	0.880610	0.386216
	C173	C	0.171151	0.116517	0.617329
	C174	C	0.819753	0.117134	0.387048
	C175	C	0.820498	0.879942	0.617770
	C176	C	0.380849	0.176410	0.882870
	C177	C	0.611260	0.174803	0.120945
	C178	C	0.380762	0.822284	0.121649
	C179	C	0.611325	0.823443	0.883527
	C180	C	0.380843	0.880501	0.178209
	C181	C	0.611598	0.116449	0.177531
	C182	C	0.380576	0.118057	0.826474
	C183	C	0.611435	0.880830	0.826095
	C184	C	0.876775	0.175214	0.386989
	C185	C	0.114219	0.174579	0.616642
	C186	C	0.114782	0.822774	0.386101
	C187	C	0.876974	0.820871	0.617192
	C188	C	0.172757	0.384362	0.882632
	C189	C	0.173014	0.613692	0.119964
	C190	C	0.820113	0.383883	0.120124
	C191	C	0.819686	0.614278	0.882130
	C192	C	0.394946	0.093797	0.602907
	C193	C	0.596412	0.904225	0.603262
	C194	C	0.595203	0.093342	0.402255
	C195	C	0.396403	0.904137	0.402506
	C196	C	0.596013	0.398838	0.096644
	C197	C	0.595230	0.599553	0.907147
	C198	C	0.396586	0.598768	0.096689
	C199	C	0.397503	0.400293	0.906324
	C200	C	0.091779	0.598567	0.401334
	C201	C	0.901763	0.598190	0.600539
	C202	C	0.091309	0.398619	0.601238
	C203	C	0.900946	0.399079	0.401647
	C204	C	0.896706	0.593490	0.100722
	C205	C	0.096385	0.404505	0.100884
	C206	C	0.095532	0.593609	0.900783
	C207	C	0.895506	0.404422	0.901074
	C208	C	0.095611	0.898131	0.596454
	C209	C	0.096000	0.098927	0.406680
	C210	C	0.896905	0.098195	0.597040
	C211	C	0.895896	0.898901	0.407423
	C212	C	0.591264	0.099794	0.902615
	C213	C	0.400791	0.099114	0.101675
	C214	C	0.591143	0.898893	0.101916
	C215	C	0.401237	0.900395	0.903178
	Zn216	Zn	0.495995	-0.000361	0.752985
	Zn217	Zn	0.495797	-0.001015	0.252041
	Zn218	Zn	0.745717	0.499113	0.001572
	Zn219	Zn	0.246854	0.499195	0.000609
	Zn220	Zn	-0.003713	0.748278	0.501353
	Zn221	Zn	-0.003809	0.248935	0.501363
	Zn222	Zn	-0.003104	0.498210	0.750986
	Zn223	Zn	-0.003457	0.498703	0.251628
	Zn224	Zn	0.496345	0.749421	0.002715
	Zn225	Zn	0.496456	0.249216	0.001804
	Zn226	Zn	0.745813	-0.001052	0.502637
	Zn227	Zn	0.245837	-0.001483	0.502234
	N228	N	0.410095	0.961760	0.681575
	N229	N	0.580480	0.036502	0.679956
	N230	N	0.581260	0.961545	0.324159
	N231	N	0.409954	0.036114	0.323715
	N232	N	0.673470	0.414560	0.964049
	N233	N	0.674184	0.584604	0.038984
	N234	N	0.318643	0.584361	0.963935
	N235	N	0.318922	0.414038	0.038297
	N236	N	0.959385	0.676881	0.415522
	N237	N	0.033990	0.676145	0.586202
	N238	N	0.959286	0.319993	0.587431
	N239	N	0.032828	0.319858	0.415201
	N240	N	0.959302	0.412709	0.679502
	N241	N	0.034330	0.583453	0.678684
	N242	N	0.959363	0.584394	0.322979
	N243	N	0.033918	0.413706	0.324282
	N244	N	0.409873	0.678480	0.965183
	N245	N	0.581702	0.676972	0.039850
	N246	N	0.583119	0.319944	0.964827
	N247	N	0.411059	0.321415	0.038594
	N248	N	0.673469	0.961472	0.417580
	N249	N	0.674908	0.035859	0.589111
	N250	N	0.318052	0.961282	0.587720
	N251	N	0.318608	0.036160	0.417751
	N252	N	0.911371	0.461574	0.179233
	N253	N	0.081658	0.536131	0.179136
	N254	N	0.081561	0.461407	0.823638
	N255	N	0.910069	0.535947	0.821650
	N256	N	0.174241	0.913217	0.464430
	N257	N	0.173344	0.083452	0.539492
	N258	N	0.818577	0.083509	0.464886
	N259	N	0.818945	0.914032	0.540161
	N260	N	0.459026	0.178401	0.915907
	N261	N	0.533147	0.177337	0.087972
	N262	N	0.458799	0.820427	0.088472
	N263	N	0.533363	0.821738	0.916939
	N264	N	0.458697	0.913965	0.179839
	N265	N	0.533454	0.083584	0.179362
	N266	N	0.458532	0.084550	0.825035
	N267	N	0.533391	0.914142	0.824449
	N268	N	0.910320	0.177203	0.464818
	N269	N	0.081523	0.176875	0.538437
	N270	N	0.081513	0.820484	0.463953
	N271	N	0.910111	0.818981	0.539071
	N272	N	0.174490	0.462145	0.915468
	N273	N	0.175245	0.536065	0.086894
	N274	N	0.817800	0.461744	0.086985
	N275	N	0.817502	0.536644	0.915616
	O276	O	0.998266	0.018851	0.911867
	H277	H	1.000959	0.018853	0.903258
	H278	H	0.996607	0.017314	0.908882
	O279	O	0.509284	0.495389	0.485977
	H280	H	0.510259	0.489956	0.487073
	H281	H	0.512147	0.495286	0.482187
	O282	O	1.085445	1.094764	-0.013527
	H283	H	1.083712	1.093192	-0.019684
	H284	H	1.091160	1.092792	-0.018562
	O285	O	0.495745	0.505977	0.489328
	H286	H	0.497962	0.508681	0.483772
	H287	H	0.493626	0.505067	0.489906
