data_Molecule from HDF5

_cell_length_a		16.270809
_cell_length_b		16.176533
_cell_length_c		16.124973
_cell_angle_alpha	89.674593
_cell_angle_beta	89.674927
_cell_angle_gamma	90.180154
_symmetry_space_group_name_H-M	'P 1'
_symmetry_Int_Tables_number		1

loop_
	_symmetry_equiv_pos_as_xyz
	x,y,z

loop_
	_atom_site_label
	_atom_site_type_symbol
	_atom_site_fract_x
	_atom_site_fract_y
	_atom_site_fract_z
	H0	H	0.399915	0.834570	0.708881
	H1	H	0.596943	0.163866	0.705115
	H2	H	0.597375	0.833262	0.282558
	H3	H	0.405512	0.163975	0.278879
	H4	H	0.714498	0.398582	0.829515
	H5	H	0.712710	0.596273	0.158498
	H6	H	0.288370	0.595653	0.828349
	H7	H	0.281999	0.395766	0.159283
	H8	H	0.836556	0.713531	0.396204
	H9	H	0.164167	0.713286	0.592550
	H10	H	0.837336	0.282137	0.596915
	H11	H	0.163397	0.285036	0.394904
	H12	H	0.836529	0.399633	0.709190
	H13	H	0.164233	0.597068	0.706446
	H14	H	0.836539	0.598228	0.280940
	H15	H	0.163521	0.402645	0.279698
	H16	H	0.401575	0.711749	0.829378
	H17	H	0.597137	0.710048	0.158988
	H18	H	0.595612	0.288081	0.828011
	H19	H	0.399492	0.282619	0.159681
	H20	H	0.716760	0.835666	0.393507
	H21	H	0.713580	0.163909	0.591390
	H22	H	0.283188	0.835729	0.596828
	H23	H	0.286315	0.164533	0.392322
	H24	H	0.900006	0.335671	0.211280
	H25	H	0.096707	0.664922	0.204463
	H26	H	0.097125	0.333488	0.781639
	H27	H	0.904909	0.663632	0.781312
	H28	H	0.214826	0.901515	0.330459
	H29	H	0.215449	0.099985	0.659369
	H30	H	0.788891	0.098776	0.329091
	H31	H	0.784216	0.898726	0.659343
	H32	H	0.335909	0.212909	0.895159
	H33	H	0.662551	0.213209	0.092232
	H34	H	0.335287	0.782541	0.094362
	H35	H	0.662930	0.784914	0.895260
	H36	H	0.336647	0.896550	0.211898
	H37	H	0.664649	0.094026	0.202234
	H38	H	0.335235	0.096273	0.780354
	H39	H	0.664008	0.902493	0.780234
	H40	H	0.903278	0.213197	0.330306
	H41	H	0.096758	0.211658	0.660625
	H42	H	0.097955	0.788635	0.329444
	H43	H	0.901359	0.785587	0.660099
	H44	H	0.212527	0.332919	0.895305
	H45	H	0.215233	0.662184	0.092426
	H46	H	0.783430	0.334625	0.097076
	H47	H	0.785906	0.662559	0.893630
	H48	H	0.409354	0.116683	0.587381
	H49	H	0.596081	0.878578	0.591878
	H50	H	0.603151	0.120651	0.395614
	H51	H	0.406245	0.879268	0.398189
	H52	H	0.575017	0.410336	0.106259
	H53	H	0.595130	0.596374	0.872784
	H54	H	0.399761	0.588331	0.113566
	H55	H	0.404316	0.403317	0.875849
	H56	H	0.116280	0.591284	0.404776
	H57	H	0.882229	0.595142	0.587897
	H58	H	0.120136	0.403893	0.590425
	H59	H	0.880882	0.396884	0.405690
	H60	H	0.117302	0.402332	0.584850
	H61	H	0.884424	0.590417	0.585500
	H62	H	0.118252	0.591292	0.394189
	H63	H	0.887140	0.412098	0.410344
	H64	H	0.407968	0.583473	0.109929
	H65	H	0.597516	0.585875	0.875498
	H66	H	0.594245	0.388194	0.117823
	H67	H	0.404372	0.408161	0.876556
	H68	H	0.588604	0.117135	0.392123
	H69	H	0.585159	0.882061	0.587559
	H70	H	0.405948	0.116922	0.582502
	H71	H	0.411225	0.884524	0.405923
	H72	H	0.903040	0.614547	0.076612
	H73	H	0.090808	0.381441	0.083451
	H74	H	0.097574	0.616427	0.900118
	H75	H	0.902017	0.379964	0.906393
	H76	H	0.092554	0.901281	0.615814
	H77	H	0.084251	0.104892	0.375672
	H78	H	0.889834	0.084861	0.616130
	H79	H	0.902284	0.899285	0.372535
	H80	H	0.617502	0.093569	0.897642
	H81	H	0.382839	0.092339	0.082531
	H82	H	0.616809	0.902389	0.086731
	H83	H	0.383376	0.906068	0.902645
	H84	H	0.616267	0.902550	0.087154
	H85	H	0.383731	0.084359	0.087808
	H86	H	0.617053	0.094500	0.899713
	H87	H	0.381363	0.904104	0.899048
	H88	H	0.916112	0.080751	0.606884
	H89	H	0.108675	0.093314	0.372147
	H90	H	0.096036	0.909949	0.613088
	H91	H	0.902912	0.915149	0.377824
	H92	H	0.093792	0.616871	0.898040
	H93	H	0.094403	0.379690	0.088813
	H94	H	0.898660	0.620626	0.092067
	H95	H	0.904596	0.378267	0.897191
	H96	H	0.404012	0.118626	0.588165
	H97	H	0.595818	0.882240	0.580193
	H98	H	0.594006	0.114978	0.406160
	H99	H	0.401724	0.882076	0.407016
	H100	H	0.604684	0.417446	0.113216
	H101	H	0.587177	0.590350	0.877908
	H102	H	0.408593	0.593800	0.112975
	H103	H	0.409190	0.405374	0.877809
	H104	H	0.118522	0.600703	0.400169
	H105	H	0.882288	0.590474	0.592036
	H106	H	0.116709	0.409289	0.586881
	H107	H	0.880850	0.409100	0.395210
	H108	H	0.913881	0.615490	0.088946
	H109	H	0.086969	0.381980	0.089652
	H110	H	0.093723	0.616163	0.902181
	H111	H	0.911812	0.382164	0.903330
	H112	H	0.086390	0.907931	0.611071
	H113	H	0.087843	0.078576	0.383186
	H114	H	0.908211	0.106681	0.617738
	H115	H	0.916268	0.906301	0.378376
	H116	H	0.616133	0.092540	0.898785
	H117	H	0.379778	0.092535	0.092402
	H118	H	0.617687	0.903328	0.088037
	H119	H	0.381320	0.902063	0.903345
	C120	C	0.377831	0.008309	0.615960
	C121	C	0.620591	0.990294	0.614616
	C122	C	0.623218	0.008193	0.370916
	C123	C	0.378672	0.990647	0.373153
	C124	C	0.619814	0.377039	0.002821
	C125	C	0.621045	0.619369	0.984824
	C126	C	0.377942	0.617927	0.002854
	C127	C	0.376585	0.375676	0.985582
	C128	C	0.009233	0.622293	0.372136
	C129	C	0.991602	0.620404	0.616057
	C130	C	0.009405	0.376583	0.616681
	C131	C	0.991070	0.378237	0.373860
	C132	C	0.876727	0.508039	0.116110
	C133	C	0.120122	0.490247	0.115087
	C134	C	0.122469	0.507483	0.871858
	C135	C	0.878645	0.489196	0.872955
	C136	C	0.120996	0.878435	0.504239
	C137	C	0.121593	0.120871	0.486178
	C138	C	0.878100	0.120119	0.503968
	C139	C	0.877951	0.877395	0.485861
	C140	C	0.508355	0.121088	0.871128
	C141	C	0.490658	0.118874	0.115107
	C142	C	0.508373	0.874299	0.116691
	C143	C	0.490478	0.876607	0.872600
	C144	C	0.379715	0.884104	0.671589
	C145	C	0.617580	0.114562	0.668331
	C146	C	0.618950	0.883141	0.318679
	C147	C	0.383210	0.114709	0.316463
	C148	C	0.676145	0.378990	0.878795
	C149	C	0.675435	0.616671	0.109175
	C150	C	0.324676	0.616113	0.878110
	C151	C	0.320717	0.376573	0.110044
	C152	C	0.885541	0.676132	0.375520
	C153	C	0.115103	0.675747	0.613039
	C154	C	0.886034	0.320939	0.615963
	C155	C	0.114683	0.323196	0.375105
	C156	C	0.885814	0.379174	0.671960
	C157	C	0.115217	0.618004	0.669591
	C158	C	0.885379	0.618780	0.318371
	C159	C	0.114493	0.381284	0.317635
	C160	C	0.381034	0.673764	0.878572
	C161	C	0.617556	0.672958	0.109376
	C162	C	0.616631	0.324191	0.877851
	C163	C	0.378846	0.320102	0.110212
	C164	C	0.678281	0.884362	0.373732
	C165	C	0.675804	0.114624	0.611784
	C166	C	0.321708	0.884627	0.615638
	C167	C	0.324014	0.114964	0.372934
	C168	C	0.879187	0.384534	0.173181
	C169	C	0.117818	0.614881	0.168238
	C170	C	0.118421	0.382844	0.818276
	C171	C	0.882789	0.614103	0.818174
	C172	C	0.176835	0.881188	0.379780
	C173	C	0.177007	0.119379	0.610336
	C174	C	0.825702	0.118387	0.378855
	C175	C	0.821936	0.878901	0.609851
	C176	C	0.384860	0.175500	0.874619
	C177	C	0.614028	0.174425	0.111942
	C178	C	0.384565	0.819850	0.114779
	C179	C	0.614151	0.822466	0.874792
	C180	C	0.385053	0.876667	0.173017
	C181	C	0.614987	0.115619	0.167128
	C182	C	0.384255	0.117483	0.817602
	C183	C	0.614670	0.880920	0.817925
	C184	C	0.882377	0.175495	0.379583
	C185	C	0.118226	0.174889	0.611042
	C186	C	0.118667	0.825177	0.379264
	C187	C	0.880349	0.822556	0.610474
	C188	C	0.175837	0.382570	0.874838
	C189	C	0.176598	0.613704	0.112361
	C190	C	0.821391	0.383888	0.116107
	C191	C	0.823741	0.613365	0.873861
	C192	C	0.399957	0.094872	0.592851
	C193	C	0.598747	0.903326	0.592942
	C194	C	0.601642	0.095158	0.391829
	C195	C	0.400025	0.904438	0.396824
	C196	C	0.597780	0.398845	0.089891
	C197	C	0.599544	0.597382	0.898035
	C198	C	0.399148	0.595186	0.089786
	C199	C	0.399390	0.398741	0.898984
	C200	C	0.095432	0.600864	0.393462
	C201	C	0.905203	0.598483	0.594793
	C202	C	0.095803	0.398642	0.593922
	C203	C	0.905222	0.399770	0.396815
	C204	C	0.898789	0.594625	0.092771
	C205	C	0.097286	0.403546	0.093735
	C206	C	0.101408	0.594028	0.893720
	C207	C	0.899960	0.402608	0.895491
	C208	C	0.098299	0.899975	0.591009
	C209	C	0.100010	0.098953	0.399486
	C210	C	0.898699	0.097347	0.591213
	C211	C	0.900581	0.900035	0.398643
	C212	C	0.594780	0.099794	0.892352
	C213	C	0.404364	0.096474	0.093977
	C214	C	0.594603	0.896182	0.094038
	C215	C	0.404385	0.897763	0.894944
	Zn216	Zn	0.499301	-0.001125	0.743592
	Zn217	Zn	0.500798	-0.002241	0.244010
	Zn218	Zn	0.748977	0.498060	-0.005914
	Zn219	Zn	0.248979	0.497708	-0.005785
	Zn220	Zn	0.000220	0.749823	0.494679
	Zn221	Zn	-0.000315	0.248265	0.495340
	Zn222	Zn	0.000686	0.498432	0.744676
	Zn223	Zn	-0.000863	0.500140	0.244109
	Zn224	Zn	0.499009	0.746731	-0.005975
	Zn225	Zn	0.499095	0.248505	-0.005592
	Zn226	Zn	0.750196	-0.000559	0.493969
	Zn227	Zn	0.249624	-0.000078	0.495244
	N228	N	0.414048	0.962018	0.671717
	N229	N	0.583893	0.036248	0.670021
	N230	N	0.585275	0.961145	0.316858
	N231	N	0.416508	0.036667	0.316539
	N232	N	0.678240	0.411321	0.957557
	N233	N	0.677433	0.583764	0.030795
	N234	N	0.322776	0.582017	0.956532
	N235	N	0.319185	0.410344	0.031639
	N236	N	0.963536	0.678597	0.408147
	N237	N	0.037130	0.677395	0.580275
	N238	N	0.963916	0.319244	0.582246
	N239	N	0.036913	0.321026	0.409206
	N240	N	0.963527	0.412920	0.672736
	N241	N	0.037583	0.584122	0.671565
	N242	N	0.963224	0.585971	0.316150
	N243	N	0.036923	0.414689	0.316611
	N244	N	0.413392	0.675197	0.957124
	N245	N	0.584261	0.674647	0.031043
	N246	N	0.582426	0.322957	0.956104
	N247	N	0.412828	0.319311	0.031760
	N248	N	0.680884	0.963024	0.405537
	N249	N	0.677795	0.036208	0.579038
	N250	N	0.320474	0.962841	0.581540
	N251	N	0.320915	0.036878	0.407421
	N252	N	0.913075	0.462547	0.173098
	N253	N	0.083372	0.536988	0.169937
	N254	N	0.085664	0.461299	0.816419
	N255	N	0.916258	0.535877	0.817429
	N256	N	0.178266	0.913827	0.458350
	N257	N	0.179113	0.086481	0.531841
	N258	N	0.822836	0.084725	0.457310
	N259	N	0.820427	0.912181	0.531141
	N260	N	0.462978	0.177778	0.907222
	N261	N	0.535778	0.176798	0.080380
	N262	N	0.462241	0.818204	0.080680
	N263	N	0.536166	0.819427	0.907941
	N264	N	0.463098	0.909741	0.174510
	N265	N	0.537301	0.081479	0.169150
	N266	N	0.461954	0.084466	0.815343
	N267	N	0.536839	0.913933	0.816550
	N268	N	0.914389	0.176677	0.458433
	N269	N	0.084263	0.175824	0.532952
	N270	N	0.084574	0.823131	0.457643
	N271	N	0.914651	0.821690	0.532168
	N272	N	0.178388	0.460835	0.907556
	N273	N	0.177778	0.535169	0.079984
	N274	N	0.819914	0.461764	0.081266
	N275	N	0.820923	0.534914	0.907265
	O276	O	0.486243	0.532507	0.529428
	H277	H	0.487002	0.532107	0.540382
	H278	H	0.505016	0.530252	0.519677
	O279	O	0.515932	0.512640	0.492774
	H280	H	0.514557	0.521243	0.488771
	H281	H	0.515619	0.506522	0.502471
	O282	O	0.481886	0.483907	0.511035
	H283	H	0.478832	0.478946	0.502532
	H284	H	0.476936	0.475381	0.508708
	O285	O	-0.505521	1.422345	1.465681
	H286	H	-0.509916	1.421090	1.457687
	H287	H	-0.506777	1.412835	1.455982
	O288	O	0.508256	0.549539	0.438513
	H289	H	0.508809	0.557226	0.434408
	H290	H	0.495198	0.546828	0.432124
	O291	O	0.025586	0.031528	1.099297
	H292	H	0.016883	0.022376	1.102989
	H293	H	0.016792	0.019820	1.102762
	O294	O	0.462132	0.503988	0.428209
	H295	H	0.462184	0.506249	0.439443
	H296	H	0.466604	0.505744	0.428060
	O297	O	0.564543	0.453849	0.534849
	H298	H	0.559877	0.455107	0.526250
	H299	H	0.565619	0.447426	0.538808
	O300	O	0.447819	0.542041	0.478478
	H301	H	0.452683	0.537572	0.484318
	H302	H	0.444857	0.539803	0.488440
	O303	O	0.435076	0.508597	0.434123
	H304	H	0.429942	0.510498	0.435899
	H305	H	0.427201	0.516095	0.439645
	O306	O	1.010068	-0.017700	1.052892
	H307	H	1.007003	-0.019588	1.052067
	H308	H	1.014078	-0.007675	1.048120
	O309	O	0.489674	0.509936	0.467076
	H310	H	0.493230	0.511769	0.479026
	H311	H	0.490799	0.518951	0.462543
	O312	O	0.487576	0.550925	0.467170
	H313	H	0.496085	0.550193	0.470865
	H314	H	0.492120	0.551700	0.472411
	O315	O	1.016295	0.002333	1.060959
	H316	H	1.012776	0.006487	1.063957
	H317	H	1.026908	0.004485	1.054830
	O318	O	0.014264	0.025124	0.083887
	H319	H	0.003791	0.025946	0.099778
	H320	H	0.029837	0.024733	0.086433
	O321	O	0.499378	0.469563	0.521107
	H322	H	0.514205	0.469006	0.513815
	H323	H	0.500717	0.466883	0.531284
	O324	O	1.052889	-0.000816	0.046420
	H325	H	1.054604	-0.004076	0.043091
	H326	H	1.054079	0.001576	0.040700
	O327	O	1.023699	0.983153	0.046699
	H328	H	1.024527	0.980688	0.056322
	H329	H	1.024334	0.991105	0.055467
	O330	O	0.506256	0.525134	0.501452
	H331	H	0.498716	0.528063	0.505033
	H332	H	0.507147	0.534213	0.502927
	O333	O	0.590685	0.489950	0.458848
	H334	H	0.586082	0.495391	0.469982
	H335	H	0.587544	0.489450	0.454857
