data_Molecule from HDF5

_cell_length_a		16.311068
_cell_length_b		16.578756
_cell_length_c		15.993905
_cell_angle_alpha	90.108969
_cell_angle_beta	89.853740
_cell_angle_gamma	90.163799
_symmetry_space_group_name_H-M	'P 1'
_symmetry_Int_Tables_number		1

loop_
	_symmetry_equiv_pos_as_xyz
	x,y,z

loop_
	_atom_site_label
	_atom_site_type_symbol
	_atom_site_fract_x
	_atom_site_fract_y
	_atom_site_fract_z
	H0	H	0.398934	0.837721	0.723003
	H1	H	0.602283	0.157329	0.724915
	H2	H	0.601210	0.838497	0.286249
	H3	H	0.402461	0.159240	0.289057
	H4	H	0.715429	0.398698	0.840764
	H5	H	0.714859	0.599000	0.171404
	H6	H	0.283484	0.601719	0.841895
	H7	H	0.282850	0.397364	0.168901
	H8	H	0.842638	0.721769	0.394818
	H9	H	0.159786	0.722475	0.614146
	H10	H	0.842122	0.275301	0.613350
	H11	H	0.158502	0.275373	0.394292
	H12	H	0.836824	0.401012	0.717749
	H13	H	0.162557	0.598865	0.721911
	H14	H	0.836351	0.594139	0.294093
	H15	H	0.162607	0.401241	0.289374
	H16	H	0.394481	0.719621	0.844632
	H17	H	0.607395	0.718684	0.168476
	H18	H	0.606463	0.278331	0.842647
	H19	H	0.392815	0.279178	0.168025
	H20	H	0.723730	0.840919	0.397339
	H21	H	0.721671	0.156031	0.610273
	H22	H	0.277415	0.840229	0.610084
	H23	H	0.280643	0.156431	0.399742
	H24	H	0.900075	0.337772	0.221856
	H25	H	0.098461	0.659653	0.221379
	H26	H	0.099431	0.337763	0.786650
	H27	H	0.900466	0.658281	0.787325
	H28	H	0.215376	0.900268	0.339403
	H29	H	0.217476	0.101053	0.668906
	H30	H	0.786789	0.097733	0.340833
	H31	H	0.784195	0.896863	0.669077
	H32	H	0.340715	0.220234	0.897750
	H33	H	0.659260	0.220604	0.111695
	H34	H	0.341491	0.775930	0.115593
	H35	H	0.660662	0.778209	0.899436
	H36	H	0.336319	0.904563	0.216668
	H37	H	0.664579	0.095156	0.216500
	H38	H	0.336961	0.095522	0.792338
	H39	H	0.663431	0.902120	0.791838
	H40	H	0.897127	0.215466	0.342121
	H41	H	0.106270	0.218004	0.668149
	H42	H	0.106886	0.780144	0.341792
	H43	H	0.894421	0.778393	0.666721
	H44	H	0.221781	0.340175	0.897909
	H45	H	0.222186	0.655807	0.111561
	H46	H	0.779152	0.339698	0.109502
	H47	H	0.780297	0.657376	0.901902
	H48	H	0.407710	0.110425	0.594184
	H49	H	0.584205	0.886353	0.597159
	H50	H	0.596114	0.110870	0.417532
	H51	H	0.400691	0.884301	0.417227
	H52	H	0.592343	0.414474	0.122166
	H53	H	0.595165	0.592000	0.886283
	H54	H	0.401107	0.580320	0.124187
	H55	H	0.407522	0.408767	0.886879
	H56	H	0.118601	0.598669	0.415171
	H57	H	0.886886	0.582721	0.596486
	H58	H	0.113949	0.411711	0.591536
	H59	H	0.885128	0.404945	0.418659
	H60	H	0.118306	0.405673	0.597431
	H61	H	0.882688	0.597289	0.596779
	H62	H	0.113394	0.589062	0.424427
	H63	H	0.884152	0.405185	0.416052
	H64	H	0.422989	0.582138	0.116731
	H65	H	0.589012	0.582549	0.891088
	H66	H	0.580883	0.407733	0.119982
	H67	H	0.415362	0.412528	0.890336
	H68	H	0.598010	0.113644	0.411281
	H69	H	0.595431	0.885534	0.588289
	H70	H	0.405252	0.112719	0.599033
	H71	H	0.408574	0.883370	0.405187
	H72	H	0.908983	0.611607	0.096830
	H73	H	0.089394	0.382420	0.106404
	H74	H	0.096043	0.609282	0.924988
	H75	H	0.906067	0.384752	0.912518
	H76	H	0.094370	0.914090	0.623034
	H77	H	0.086110	0.085021	0.390345
	H78	H	0.912487	0.085144	0.621627
	H79	H	0.907453	0.906754	0.385141
	H80	H	0.615742	0.088884	0.915020
	H81	H	0.383270	0.085119	0.105231
	H82	H	0.613562	0.916867	0.094643
	H83	H	0.384279	0.903864	0.916117
	H84	H	0.621351	0.900512	0.103702
	H85	H	0.380809	0.102971	0.095086
	H86	H	0.616519	0.094943	0.916627
	H87	H	0.385879	0.903734	0.921878
	H88	H	0.915081	0.089626	0.622795
	H89	H	0.087971	0.095180	0.385885
	H90	H	0.081392	0.911592	0.618393
	H91	H	0.913433	0.913306	0.389834
	H92	H	0.097701	0.614991	0.908469
	H93	H	0.082250	0.389851	0.088631
	H94	H	0.903066	0.611927	0.095666
	H95	H	0.906862	0.385771	0.913830
	H96	H	0.411348	0.110863	0.598914
	H97	H	0.597097	0.881820	0.601799
	H98	H	0.591185	0.110720	0.411898
	H99	H	0.413743	0.888415	0.417939
	H100	H	0.591390	0.401270	0.126045
	H101	H	0.582819	0.593019	0.889236
	H102	H	0.412512	0.599909	0.126869
	H103	H	0.416078	0.403795	0.887868
	H104	H	0.115785	0.585628	0.410277
	H105	H	0.889112	0.591674	0.583579
	H106	H	0.115941	0.403093	0.588769
	H107	H	0.884430	0.402870	0.417147
	H108	H	0.904987	0.614096	0.101447
	H109	H	0.102314	0.384052	0.089413
	H110	H	0.083513	0.607699	0.913698
	H111	H	0.905196	0.384682	0.914128
	H112	H	0.088524	0.902171	0.624160
	H113	H	0.096072	0.088367	0.386115
	H114	H	0.909267	0.089248	0.624231
	H115	H	0.917180	0.904119	0.387233
	H116	H	0.613598	0.091007	0.921212
	H117	H	0.389170	0.086988	0.084718
	H118	H	0.615052	0.899239	0.083500
	H119	H	0.386235	0.909046	0.918969
	C120	C	0.377086	0.006374	0.628378
	C121	C	0.622834	0.989699	0.627248
	C122	C	0.624715	0.006738	0.381566
	C123	C	0.378596	0.990337	0.382930
	C124	C	0.620171	0.377445	0.014434
	C125	C	0.620444	0.619563	0.997241
	C126	C	0.379820	0.619516	0.015084
	C127	C	0.380054	0.377523	0.996406
	C128	C	0.009335	0.620269	0.384553
	C129	C	0.992156	0.621296	0.625786
	C130	C	0.009456	0.376989	0.624737
	C131	C	0.990934	0.375188	0.383903
	C132	C	0.875949	0.507004	0.128495
	C133	C	0.121981	0.490133	0.127074
	C134	C	0.122857	0.506190	0.882951
	C135	C	0.876677	0.490181	0.882762
	C136	C	0.120337	0.878826	0.513442
	C137	C	0.122041	0.120637	0.495674
	C138	C	0.881361	0.118375	0.514500
	C139	C	0.880252	0.877073	0.495366
	C140	C	0.508919	0.120820	0.885395
	C141	C	0.491192	0.120930	0.125999
	C142	C	0.509778	0.876023	0.126633
	C143	C	0.491916	0.876179	0.885951
	C144	C	0.377916	0.885995	0.685539
	C145	C	0.622348	0.109480	0.685731
	C146	C	0.622239	0.886782	0.323831
	C147	C	0.381524	0.111085	0.326829
	C148	C	0.677830	0.378021	0.890542
	C149	C	0.677555	0.619132	0.121255
	C150	C	0.321901	0.620510	0.891497
	C151	C	0.321376	0.378001	0.119611
	C152	C	0.889407	0.680042	0.379792
	C153	C	0.112199	0.681599	0.630458
	C154	C	0.889135	0.316952	0.629573
	C155	C	0.111166	0.316607	0.378754
	C156	C	0.886550	0.379623	0.681151
	C157	C	0.113660	0.619994	0.684263
	C158	C	0.886293	0.616539	0.329221
	C159	C	0.113272	0.378890	0.326082
	C160	C	0.377265	0.679374	0.892832
	C161	C	0.623589	0.678436	0.120053
	C162	C	0.623271	0.318409	0.891426
	C163	C	0.376088	0.318960	0.119066
	C164	C	0.683235	0.887969	0.379380
	C165	C	0.682137	0.108519	0.629185
	C166	C	0.317948	0.887177	0.628810
	C167	C	0.320837	0.109620	0.381922
	C168	C	0.878922	0.386100	0.184137
	C169	C	0.119938	0.610883	0.184363
	C170	C	0.120394	0.385989	0.825037
	C171	C	0.879413	0.610409	0.825991
	C172	C	0.177777	0.879884	0.389157
	C173	C	0.179501	0.120372	0.619395
	C174	C	0.824527	0.117426	0.390414
	C175	C	0.822096	0.876976	0.619207
	C176	C	0.388186	0.179277	0.881687
	C177	C	0.612239	0.179570	0.128480
	C178	C	0.389078	0.817039	0.131327
	C179	C	0.612744	0.818236	0.882535
	C180	C	0.386473	0.880823	0.181910
	C181	C	0.614549	0.117192	0.180543
	C182	C	0.386231	0.117141	0.829256
	C183	C	0.614262	0.879670	0.828886
	C184	C	0.879669	0.176191	0.391081
	C185	C	0.124221	0.178919	0.618930
	C186	C	0.123804	0.819963	0.390651
	C187	C	0.877364	0.818338	0.618200
	C188	C	0.181473	0.387330	0.880240
	C189	C	0.181431	0.609176	0.129404
	C190	C	0.818655	0.387040	0.128312
	C191	C	0.819690	0.609962	0.882913
	C192	C	0.401165	0.089548	0.604484
	C193	C	0.599164	0.906273	0.602742
	C194	C	0.601884	0.090204	0.406322
	C195	C	0.401125	0.906971	0.406586
	C196	C	0.595347	0.400945	0.100468
	C197	C	0.596005	0.595963	0.911225
	C198	C	0.404902	0.594563	0.100529
	C199	C	0.405556	0.401511	0.910615
	C200	C	0.093919	0.597715	0.409570
	C201	C	0.907972	0.597530	0.599813
	C202	C	0.094029	0.400133	0.599754
	C203	C	0.906481	0.397822	0.409684
	C204	C	0.898815	0.590671	0.104883
	C205	C	0.098280	0.407071	0.102052
	C206	C	0.099370	0.589068	0.908262
	C207	C	0.899356	0.406782	0.906346
	C208	C	0.095195	0.902584	0.599516
	C209	C	0.097175	0.096646	0.409761
	C210	C	0.905432	0.094941	0.600510
	C211	C	0.905255	0.901011	0.409663
	C212	C	0.593293	0.098188	0.910234
	C213	C	0.406401	0.098489	0.102025
	C214	C	0.594727	0.898763	0.101324
	C215	C	0.407453	0.898980	0.911324
	Zn216	Zn	0.500314	-0.001819	0.757649
	Zn217	Zn	0.500710	-0.000670	0.252919
	Zn218	Zn	0.746694	0.498925	0.005844
	Zn219	Zn	0.252855	0.498209	0.004886
	Zn220	Zn	0.001016	0.749851	0.504340
	Zn221	Zn	0.000689	0.246863	0.505936
	Zn222	Zn	0.000351	0.498237	0.753162
	Zn223	Zn	-0.000407	0.498349	0.257056
	Zn224	Zn	0.500455	0.746957	0.006592
	Zn225	Zn	0.499758	0.250005	0.005675
	Zn226	Zn	0.753297	-0.002116	0.505505
	Zn227	Zn	0.248011	-0.001261	0.504626
	N228	N	0.414087	0.960967	0.685346
	N229	N	0.586071	0.034621	0.684601
	N230	N	0.586402	0.961739	0.325271
	N231	N	0.416903	0.036009	0.327310
	N232	N	0.676019	0.413953	0.967912
	N233	N	0.675831	0.583132	0.043857
	N234	N	0.323384	0.583957	0.968515
	N235	N	0.323694	0.413734	0.042200
	N236	N	0.966957	0.682532	0.413493
	N237	N	0.035536	0.682472	0.594852
	N238	N	0.966427	0.315100	0.595246
	N239	N	0.034282	0.314373	0.414176
	N240	N	0.962337	0.416485	0.678442
	N241	N	0.038044	0.583300	0.681596
	N242	N	0.961893	0.580096	0.331734
	N243	N	0.037515	0.414966	0.329368
	N244	N	0.412449	0.678876	0.970789
	N245	N	0.588550	0.678872	0.041998
	N246	N	0.588226	0.317698	0.969803
	N247	N	0.411906	0.318575	0.041264
	N248	N	0.684919	0.963520	0.414503
	N249	N	0.682370	0.032981	0.593348
	N250	N	0.317193	0.963031	0.594157
	N251	N	0.318945	0.033716	0.416171
	N252	N	0.913642	0.461667	0.184561
	N253	N	0.083630	0.535906	0.182980
	N254	N	0.084604	0.460964	0.826500
	N255	N	0.914076	0.535061	0.825759
	N256	N	0.175872	0.915540	0.466727
	N257	N	0.178256	0.084762	0.541708
	N258	N	0.825359	0.082084	0.468058
	N259	N	0.823739	0.912858	0.541817
	N260	N	0.465429	0.181658	0.915965
	N261	N	0.534585	0.182139	0.095302
	N262	N	0.466855	0.813807	0.097889
	N263	N	0.535595	0.815823	0.917178
	N264	N	0.462563	0.916716	0.179307
	N265	N	0.538379	0.081441	0.179132
	N266	N	0.462302	0.081666	0.831100
	N267	N	0.537991	0.914932	0.830746
	N268	N	0.914232	0.176971	0.469351
	N269	N	0.089359	0.179289	0.540852
	N270	N	0.088940	0.819177	0.469034
	N271	N	0.912701	0.818155	0.540163
	N272	N	0.182969	0.462972	0.915428
	N273	N	0.182861	0.533319	0.094392
	N274	N	0.816677	0.463330	0.094546
	N275	N	0.817976	0.534198	0.917730
	O276	O	0.643169	0.325752	0.449162
	H277	H	0.658199	0.318399	0.440930
	H278	H	0.611431	0.317444	0.459737
	O279	O	0.078899	-0.100066	-0.049351
	H280	H	0.077629	-0.108618	-0.040028
	H281	H	0.069674	-0.088267	-0.051645
	O282	O	1.099767	-0.114572	0.964792
	H283	H	1.119167	-0.113889	0.951111
	H284	H	1.093646	-0.123738	0.970919
	O285	O	0.560144	0.537016	0.676815
	H286	H	0.574049	0.554029	0.674276
	H287	H	0.580510	0.532184	0.673225
	O288	O	1.018969	0.991492	1.147136
	H289	H	1.013513	0.985769	1.143412
	H290	H	1.012795	0.993607	1.144080
	O291	O	-0.151436	1.030780	-0.081557
	H292	H	-0.161404	1.035995	-0.082567
	H293	H	-0.145839	1.032453	-0.089083
	O294	O	0.662649	0.325745	0.381532
	H295	H	0.655025	0.320845	0.393517
	H296	H	0.664030	0.329660	0.389090
	O297	O	0.386751	0.405153	0.635682
	H298	H	0.374082	0.429784	0.633195
	H299	H	0.391829	0.400712	0.622895
	O300	O	0.451358	0.612762	0.426283
	H301	H	0.450605	0.620864	0.416728
	H302	H	0.455276	0.613585	0.419690
	O303	O	0.437273	0.519316	0.656580
	H304	H	0.430060	0.522256	0.631640
	H305	H	0.441206	0.517669	0.659333
	O306	O	0.340750	0.421889	0.425172
	H307	H	0.348384	0.435681	0.413321
	H308	H	0.344517	0.422665	0.421315
	O309	O	0.471234	0.508249	0.517253
	H310	H	0.459666	0.516093	0.500229
	H311	H	0.477971	0.508987	0.521373
	O312	O	-0.002854	0.029211	-0.006015
	H313	H	-0.008444	0.041301	0.003928
	H314	H	0.006048	0.039627	-0.005708
	O315	O	0.678540	0.618571	0.701650
	H316	H	0.689942	0.613790	0.680122
	H317	H	0.667759	0.608798	0.708806
	O318	O	-0.504523	1.366185	0.585572
	H319	H	-0.507533	1.373904	0.574688
	H320	H	-0.522282	1.362285	0.591840
	O321	O	0.653844	0.460317	0.304704
	H322	H	0.654573	0.451978	0.296761
	H323	H	0.672919	0.450444	0.296337
	O324	O	0.036946	0.983509	0.149329
	H325	H	0.032730	0.971508	0.150037
	H326	H	0.039703	0.990703	0.148106
	O327	O	0.413482	0.621317	0.428253
	H328	H	0.418939	0.616231	0.421848
	H329	H	0.407773	0.628980	0.421010
	O330	O	0.476112	-0.570100	1.327306
	H331	H	0.483945	-0.578500	1.329874
	H332	H	0.496242	-0.558948	1.331928
	O333	O	0.079212	0.048866	1.068108
	H334	H	0.093486	0.054748	1.070464
	H335	H	0.094068	0.048032	1.057681
	O336	O	0.475105	0.396083	0.650565
	H337	H	0.448549	0.407824	0.654031
	H338	H	0.471564	0.371769	0.665042
	O339	O	0.463662	-0.517882	0.456209
	H340	H	0.458414	-0.516420	0.458748
	H341	H	0.454885	-0.511744	0.453706
	O342	O	-0.051213	0.140183	-0.052604
	H343	H	-0.054792	0.140954	-0.057782
	H344	H	-0.058347	0.149954	-0.055625
	O345	O	0.940518	-0.158213	1.049745
	H346	H	0.925134	-0.147403	1.063718
	H347	H	0.936827	-0.167661	1.039973
	O348	O	1.148946	1.002277	-0.054052
	H349	H	1.154836	0.989322	-0.065996
	H350	H	1.149273	1.008592	-0.051379
	O351	O	0.529036	0.359193	0.488607
	H352	H	0.508979	0.344940	0.494399
	H353	H	0.536708	0.362972	0.468454
	O354	O	1.116230	-0.018197	0.974497
	H355	H	1.116750	-0.012626	0.961709
	H356	H	1.126521	-0.035171	0.968811
	O357	O	0.320408	0.562325	0.550559
	H358	H	0.318453	0.561002	0.543887
	H359	H	0.327161	0.565163	0.552562
	O360	O	0.555837	0.687473	0.663107
	H361	H	0.543468	0.695890	0.669932
	H362	H	0.563438	0.679043	0.667889
	O363	O	0.016436	0.862955	1.073270
	H364	H	0.014527	0.851155	1.073370
	H365	H	0.010470	0.854697	1.069045
	O366	O	0.347001	0.457382	0.516560
	H367	H	0.342945	0.467033	0.525875
	H368	H	0.347532	0.464332	0.530659
	O369	O	0.029943	1.023288	-0.033281
	H370	H	0.033629	1.022178	-0.032425
	H371	H	0.033981	1.021357	-0.030160
	O372	O	1.469258	0.638859	0.430321
	H373	H	1.469416	0.639196	0.432225
	H374	H	1.478796	0.642195	0.429805
	O375	O	1.026958	-0.138878	-0.117524
	H376	H	1.024541	-0.133192	-0.108685
	H377	H	1.031201	-0.138806	-0.118325
	O378	O	1.045741	1.171898	-0.066942
	H379	H	1.032059	1.170004	-0.080233
	H380	H	1.045204	1.170050	-0.067166
	O381	O	0.941285	-0.089656	0.047190
	H382	H	0.936813	-0.086231	0.046978
	H383	H	0.926809	-0.093671	0.063771
	O384	O	0.983512	1.105107	0.095320
	H385	H	0.979322	1.106066	0.094180
	H386	H	0.995450	1.120190	0.087509
	O387	O	-0.024540	-0.089483	0.090442
	H388	H	-0.020856	-0.084849	0.088601
	H389	H	-0.025785	-0.092472	0.087181
	O390	O	-0.137257	1.028748	-0.085570
	H391	H	-0.146654	1.034296	-0.092202
	H392	H	-0.127296	1.032625	-0.084322
	O393	O	1.001883	0.953011	0.972651
	H394	H	0.996794	0.965217	0.967308
	H395	H	1.002568	0.952352	0.975523
	O396	O	0.471765	0.592077	0.412226
	H397	H	0.475290	0.600588	0.407164
	H398	H	0.479097	0.586658	0.405322
	O399	O	-0.039552	1.128296	0.934752
	H400	H	-0.052699	1.111544	0.940111
	H401	H	-0.029749	1.130757	0.922845
	O402	O	0.512107	0.593103	0.344878
	H403	H	0.531318	0.587037	0.336081
	H404	H	0.497906	0.587450	0.348036
	O405	O	0.976268	1.002860	0.052837
	H406	H	0.981366	0.993472	0.058638
	H407	H	0.990402	0.999675	0.060658
	O408	O	0.677834	1.652464	0.507962
	H409	H	0.685637	1.673718	0.516306
	H410	H	0.672248	1.640047	0.523623
	O411	O	0.533629	-0.442217	0.650338
	H412	H	0.543865	-0.433467	0.646180
	H413	H	0.536121	-0.464916	0.655425
	O414	O	0.306762	0.478713	0.499815
	H415	H	0.313201	0.484843	0.492526
	H416	H	0.296187	0.478770	0.512413
	O417	O	0.639658	0.370782	0.575511
	H418	H	0.625246	0.385236	0.576308
	H419	H	0.623138	0.360563	0.577318
