data_Molecule from HDF5

_cell_length_a		16.355635
_cell_length_b		16.355499
_cell_length_c		16.251445
_cell_angle_alpha	89.794973
_cell_angle_beta	89.805961
_cell_angle_gamma	89.985100
_symmetry_space_group_name_H-M	'P 1'
_symmetry_Int_Tables_number		1

loop_
	_symmetry_equiv_pos_as_xyz
	x,y,z

loop_
	_atom_site_label
	_atom_site_type_symbol
	_atom_site_fract_x
	_atom_site_fract_y
	_atom_site_fract_z
	H0	H	0.387469	0.843018	0.715376
	H1	H	0.593015	0.164738	0.715088
	H2	H	0.590504	0.842421	0.279670
	H3	H	0.386498	0.165029	0.276712
	H4	H	0.709403	0.400661	0.835389
	H5	H	0.705630	0.605302	0.158315
	H6	H	0.273138	0.607005	0.833814
	H7	H	0.269243	0.401105	0.157183
	H8	H	0.828151	0.722844	0.395334
	H9	H	0.149617	0.724810	0.600690
	H10	H	0.830961	0.282521	0.603490
	H11	H	0.151370	0.286461	0.391954
	H12	H	0.828944	0.402528	0.715418
	H13	H	0.150334	0.606306	0.713441
	H14	H	0.828026	0.608221	0.280178
	H15	H	0.151913	0.406440	0.278491
	H16	H	0.386317	0.723397	0.835309
	H17	H	0.591756	0.721938	0.157812
	H18	H	0.592327	0.287392	0.834670
	H19	H	0.385240	0.285150	0.157808
	H20	H	0.709419	0.844086	0.392675
	H21	H	0.707279	0.166022	0.598291
	H22	H	0.268655	0.844156	0.602517
	H23	H	0.269164	0.164035	0.391666
	H24	H	0.887425	0.344837	0.218363
	H25	H	0.091087	0.667358	0.212511
	H26	H	0.092619	0.345091	0.777056
	H27	H	0.886934	0.665438	0.778678
	H28	H	0.208663	0.901444	0.334837
	H29	H	0.209837	0.108326	0.656853
	H30	H	0.772970	0.109669	0.333588
	H31	H	0.770549	0.902494	0.657231
	H32	H	0.329497	0.225207	0.891483
	H33	H	0.648162	0.224355	0.102235
	H34	H	0.328930	0.782648	0.101600
	H35	H	0.649214	0.783781	0.891754
	H36	H	0.328563	0.898646	0.217217
	H37	H	0.650024	0.104872	0.212505
	H38	H	0.328632	0.107262	0.777088
	H39	H	0.650281	0.903214	0.777508
	H40	H	0.889202	0.224779	0.334478
	H41	H	0.095107	0.224265	0.657001
	H42	H	0.092455	0.787482	0.333969
	H43	H	0.886803	0.786709	0.658608
	H44	H	0.208653	0.344554	0.891427
	H45	H	0.209492	0.665036	0.099538
	H46	H	0.767929	0.344987	0.105634
	H47	H	0.770020	0.664673	0.893526
	H48	H	0.395948	0.117590	0.580042
	H49	H	0.579717	0.890285	0.583614
	H50	H	0.581211	0.117748	0.406815
	H51	H	0.392535	0.890335	0.415591
	H52	H	0.580869	0.407706	0.113951
	H53	H	0.580390	0.597668	0.879756
	H54	H	0.403773	0.592116	0.109503
	H55	H	0.394785	0.417237	0.880231
	H56	H	0.104021	0.598068	0.409205
	H57	H	0.874555	0.593847	0.590189
	H58	H	0.102447	0.418865	0.584773
	H59	H	0.879911	0.414303	0.419992
	H60	H	0.105295	0.413617	0.590048
	H61	H	0.872477	0.600189	0.587572
	H62	H	0.104656	0.594452	0.403247
	H63	H	0.878210	0.425132	0.403976
	H64	H	0.396656	0.596679	0.113617
	H65	H	0.582962	0.591861	0.880544
	H66	H	0.582417	0.418400	0.110549
	H67	H	0.402819	0.415881	0.883369
	H68	H	0.584215	0.121080	0.401539
	H69	H	0.581535	0.890073	0.585996
	H70	H	0.398630	0.119902	0.589177
	H71	H	0.395610	0.885853	0.397242
	H72	H	0.892402	0.623327	0.092576
	H73	H	0.084944	0.389863	0.085372
	H74	H	0.090752	0.625251	0.897274
	H75	H	0.905910	0.393848	0.912694
	H76	H	0.082801	0.909685	0.614582
	H77	H	0.083662	0.097392	0.378995
	H78	H	0.896257	0.090283	0.610134
	H79	H	0.896504	0.923901	0.382215
	H80	H	0.601656	0.091018	0.908007
	H81	H	0.376461	0.090594	0.082824
	H82	H	0.604997	0.908166	0.089820
	H83	H	0.371976	0.905953	0.904694
	H84	H	0.602413	0.910734	0.081030
	H85	H	0.373259	0.092621	0.089241
	H86	H	0.605611	0.095432	0.899304
	H87	H	0.376765	0.914672	0.914230
	H88	H	0.902262	0.094653	0.609001
	H89	H	0.080225	0.089857	0.383174
	H90	H	0.080590	0.920495	0.610100
	H91	H	0.908648	0.911294	0.382822
	H92	H	0.069545	0.618344	0.900248
	H93	H	0.075529	0.390231	0.092423
	H94	H	0.905183	0.616765	0.087995
	H95	H	0.891427	0.388621	0.911225
	H96	H	0.405252	0.115709	0.582568
	H97	H	0.579240	0.890535	0.586018
	H98	H	0.577805	0.119332	0.401177
	H99	H	0.409522	0.892985	0.408443
	H100	H	0.572300	0.413324	0.110427
	H101	H	0.575941	0.592488	0.882299
	H102	H	0.395036	0.587679	0.110909
	H103	H	0.399019	0.410005	0.879097
	H104	H	0.105784	0.601184	0.403608
	H105	H	0.876324	0.594657	0.583210
	H106	H	0.104485	0.411520	0.582712
	H107	H	0.872453	0.406874	0.403667
	H108	H	0.893495	0.617797	0.078780
	H109	H	0.075372	0.394102	0.081255
	H110	H	0.083538	0.617694	0.917613
	H111	H	0.900935	0.387830	0.898356
	H112	H	0.071966	0.912366	0.609943
	H113	H	0.074877	0.097449	0.382613
	H114	H	0.896467	0.097746	0.613136
	H115	H	0.892963	0.907784	0.375931
	H116	H	0.604962	0.100655	0.907949
	H117	H	0.373841	0.097070	0.083248
	H118	H	0.602162	0.917277	0.088040
	H119	H	0.374817	0.919068	0.901101
	C120	C	0.368109	0.012452	0.617291
	C121	C	0.610793	0.996658	0.616174
	C122	C	0.611455	0.012889	0.373481
	C123	C	0.367972	0.995540	0.374739
	C124	C	0.610580	0.382430	0.005312
	C125	C	0.610072	0.624584	0.987768
	C126	C	0.368060	0.624030	0.004568
	C127	C	0.367165	0.382513	0.987244
	C128	C	-0.001848	0.627786	0.375074
	C129	C	0.980788	0.626604	0.617798
	C130	C	-0.001634	0.382781	0.618519
	C131	C	0.982669	0.385216	0.376493
	C132	C	0.866708	0.513302	0.119230
	C133	C	0.110107	0.497162	0.116835
	C134	C	0.111894	0.513892	0.874063
	C135	C	0.868461	0.496243	0.876239
	C136	C	0.110247	0.883038	0.504825
	C137	C	0.111053	0.125660	0.487922
	C138	C	0.868427	0.126358	0.504156
	C139	C	0.868063	0.883576	0.487530
	C140	C	0.497915	0.126562	0.873862
	C141	C	0.480522	0.124289	0.116542
	C142	C	0.497506	0.880718	0.118513
	C143	C	0.480713	0.882603	0.874953
	C144	C	0.367855	0.891336	0.676455
	C145	C	0.611443	0.116980	0.675161
	C146	C	0.610757	0.891014	0.317395
	C147	C	0.367623	0.116630	0.315841
	C148	C	0.669909	0.381784	0.883775
	C149	C	0.667125	0.624507	0.109846
	C150	C	0.311539	0.625410	0.882564
	C151	C	0.308412	0.381740	0.108842
	C152	C	0.876582	0.684639	0.375454
	C153	C	0.101556	0.684869	0.618655
	C154	C	0.878669	0.322814	0.621255
	C155	C	0.103350	0.326360	0.373800
	C156	C	0.877533	0.382680	0.676869
	C157	C	0.102177	0.626098	0.675061
	C158	C	0.876603	0.627606	0.318139
	C159	C	0.103697	0.385985	0.317459
	C160	C	0.367958	0.683466	0.883474
	C161	C	0.610346	0.682553	0.109446
	C162	C	0.611373	0.325542	0.883285
	C163	C	0.366278	0.324216	0.109135
	C164	C	0.669702	0.891870	0.373817
	C165	C	0.668723	0.117587	0.616962
	C166	C	0.308915	0.891966	0.620129
	C167	C	0.309174	0.116226	0.373100
	C168	C	0.867182	0.392957	0.179299
	C169	C	0.110458	0.618693	0.174145
	C170	C	0.111797	0.393088	0.815979
	C171	C	0.867788	0.617260	0.817767
	C172	C	0.169262	0.882733	0.383074
	C173	C	0.170552	0.127007	0.608683
	C174	C	0.811592	0.127944	0.382254
	C175	C	0.809628	0.883308	0.609095
	C176	C	0.377302	0.185197	0.872846
	C177	C	0.600428	0.183896	0.119141
	C178	C	0.376876	0.822008	0.119988
	C179	C	0.601432	0.823985	0.873284
	C180	C	0.376670	0.879812	0.177603
	C181	C	0.601288	0.124428	0.174609
	C182	C	0.377077	0.126804	0.815618
	C183	C	0.601916	0.883025	0.816367
	C184	C	0.869591	0.185185	0.382667
	C185	C	0.113217	0.184675	0.608755
	C186	C	0.111141	0.825967	0.382714
	C187	C	0.867443	0.825865	0.609753
	C188	C	0.169703	0.392946	0.873104
	C189	C	0.169466	0.617652	0.117847
	C190	C	0.807822	0.393005	0.122762
	C191	C	0.809497	0.616785	0.874875
	C192	C	0.392661	0.095826	0.591398
	C193	C	0.587002	0.912404	0.592248
	C194	C	0.587937	0.097310	0.396547
	C195	C	0.392237	0.911410	0.399653
	C196	C	0.585744	0.406201	0.089802
	C197	C	0.586526	0.600685	0.903041
	C198	C	0.391503	0.599322	0.089531
	C199	C	0.391664	0.407175	0.902678
	C200	C	0.082825	0.604544	0.398455
	C201	C	0.896357	0.602902	0.593930
	C202	C	0.082309	0.407377	0.593240
	C203	C	0.898712	0.408596	0.401902
	C204	C	0.890364	0.597292	0.093820
	C205	C	0.085747	0.413159	0.093079
	C206	C	0.088174	0.598485	0.898281
	C207	C	0.892580	0.412118	0.900493
	C208	C	0.085587	0.907154	0.589399
	C209	C	0.086563	0.101754	0.403441
	C210	C	0.891770	0.101472	0.588691
	C211	C	0.892367	0.907296	0.402504
	C212	C	0.582124	0.102633	0.898112
	C213	C	0.396302	0.100209	0.092033
	C214	C	0.581377	0.904897	0.093529
	C215	C	0.396471	0.906369	0.899477
	Zn216	Zn	0.489344	0.004225	0.745711
	Zn217	Zn	0.488932	0.003607	0.245380
	Zn218	Zn	0.738650	0.503754	-0.003352
	Zn219	Zn	0.239126	0.504942	-0.003959
	Zn220	Zn	-0.010959	0.755210	0.496360
	Zn221	Zn	-0.009498	0.254396	0.496545
	Zn222	Zn	-0.010599	0.505500	0.746564
	Zn223	Zn	-0.010232	0.506660	0.247037
	Zn224	Zn	0.489087	0.752619	-0.004000
	Zn225	Zn	0.489270	0.254527	-0.003655
	Zn226	Zn	0.740001	0.005530	0.495414
	Zn227	Zn	0.238842	0.003858	0.496297
	N228	N	0.403807	0.967372	0.675003
	N229	N	0.576180	0.040710	0.674941
	N230	N	0.575401	0.967273	0.316730
	N231	N	0.403283	0.040390	0.316756
	N232	N	0.669785	0.416087	0.960791
	N233	N	0.666952	0.589166	0.033249
	N234	N	0.311458	0.589268	0.959041
	N235	N	0.308484	0.416831	0.031866
	N236	N	0.953093	0.685014	0.410027
	N237	N	0.025057	0.685304	0.583840
	N238	N	0.955036	0.322670	0.585851
	N239	N	0.027205	0.325895	0.410030
	N240	N	0.953156	0.418993	0.675505
	N241	N	0.025959	0.590546	0.674638
	N242	N	0.953332	0.592932	0.317821
	N243	N	0.027674	0.421727	0.318935
	N244	N	0.402312	0.682824	0.960522
	N245	N	0.575649	0.682764	0.032648
	N246	N	0.575256	0.325780	0.959878
	N247	N	0.402080	0.324703	0.032480
	N248	N	0.670786	0.968800	0.407351
	N249	N	0.668578	0.041693	0.581189
	N250	N	0.308745	0.968092	0.584235
	N251	N	0.309206	0.039868	0.408775
	N252	N	0.903114	0.468837	0.177112
	N253	N	0.074019	0.542910	0.173538
	N254	N	0.076431	0.469319	0.816567
	N255	N	0.903729	0.541204	0.818384
	N256	N	0.168870	0.917466	0.460012
	N257	N	0.169361	0.090966	0.532406
	N258	N	0.810745	0.092275	0.458793
	N259	N	0.809853	0.918440	0.532084
	N260	N	0.453594	0.185380	0.908062
	N261	N	0.524109	0.183991	0.083854
	N262	N	0.453031	0.822395	0.084118
	N263	N	0.525105	0.823531	0.908933
	N264	N	0.452712	0.915472	0.176982
	N265	N	0.525654	0.087833	0.172917
	N266	N	0.453092	0.091133	0.816085
	N267	N	0.525906	0.918726	0.817371
	N268	N	0.904012	0.184553	0.459647
	N269	N	0.076868	0.183715	0.532711
	N270	N	0.075614	0.825799	0.459434
	N271	N	0.903107	0.825892	0.533053
	N272	N	0.169837	0.469124	0.908406
	N273	N	0.169455	0.541225	0.082908
	N274	N	0.807510	0.468727	0.086013
	N275	N	0.809945	0.540648	0.910665
	O276	O	0.605155	0.541611	0.551128
	H277	H	0.613931	0.551561	0.553599
	H278	H	0.590478	0.541575	0.566182
	O279	O	0.985091	1.126962	-0.006873
	H280	H	0.968092	1.130173	-0.006055
	H281	H	0.964625	1.122841	-0.012560
	O282	O	-0.142812	0.061541	0.879376
	H283	H	-0.155845	0.028827	0.882020
	H284	H	-0.121237	0.079685	0.864414
	O285	O	0.981816	0.091230	-0.175040
	H286	H	0.991635	0.092872	-0.203398
	H287	H	0.999757	0.084258	-0.168813
	O288	O	-0.179437	-0.166979	1.120422
	H289	H	-0.163547	-0.170402	1.105782
	H290	H	-0.183474	-0.160767	1.124861
	O291	O	0.438624	0.424871	0.595404
	H292	H	0.436581	0.424636	0.594899
	H293	H	0.433111	0.420065	0.598574
	O294	O	0.364362	0.337384	0.415024
	H295	H	0.366549	0.341135	0.411822
	H296	H	0.389854	0.341846	0.422752
	O297	O	1.181762	0.924368	0.802045
	H298	H	1.180972	0.915037	0.832134
	H299	H	1.193999	0.934092	0.781117
	O300	O	-0.006830	0.040749	-0.034909
	H301	H	-0.008960	0.046104	-0.030145
	H302	H	-0.003604	0.039725	-0.027458
	O303	O	0.603558	0.519296	0.366538
	H304	H	0.590602	0.510877	0.373639
	H305	H	0.600419	0.522458	0.366311
	O306	O	0.840589	0.091104	-0.171707
	H307	H	0.828180	0.084701	-0.133259
	H308	H	0.865077	0.095978	-0.185861
	O309	O	0.658690	0.636924	0.463743
	H310	H	0.661004	0.640215	0.473844
	H311	H	0.667566	0.632636	0.481896
	O312	O	1.098878	1.108244	0.189439
	H313	H	1.084036	1.136763	0.176218
	H314	H	1.105103	1.098190	0.206285
	O315	O	0.548458	0.662065	0.592574
	H316	H	0.546737	0.659139	0.584061
	H317	H	0.560914	0.661244	0.602133
	O318	O	0.367305	0.379640	0.443489
	H319	H	0.367650	0.373826	0.428738
	H320	H	0.382169	0.388169	0.432139
	O321	O	0.803876	0.049942	1.181679
	H322	H	0.791444	0.041034	1.200901
	H323	H	0.806014	0.033198	1.176299
	O324	O	0.192412	0.014620	1.104271
	H325	H	0.206498	0.022543	1.106496
	H326	H	0.192976	0.049211	1.120555
	O327	O	0.474320	0.517384	0.594006
	H328	H	0.457106	0.518434	0.583876
	H329	H	0.470025	0.504870	0.607225
	O330	O	0.352142	0.496745	0.436416
	H331	H	0.365076	0.477771	0.422348
	H332	H	0.349975	0.512474	0.439596
	O333	O	1.073771	1.206186	0.941067
	H334	H	1.076739	1.209441	0.937971
	H335	H	1.067403	1.206654	0.950273
	O336	O	0.492018	0.575862	0.525687
	H337	H	0.484648	0.581435	0.525604
	H338	H	0.493797	0.571876	0.526971
	O339	O	1.161500	0.197002	1.161719
	H340	H	1.145274	0.217183	1.171376
	H341	H	1.145046	0.208387	1.140082
	O342	O	0.169759	0.874589	1.066047
	H343	H	0.179364	0.905074	1.079862
	H344	H	0.165678	0.873732	1.075313
	O345	O	0.540165	0.626217	0.652152
	H346	H	0.541217	0.619309	0.648727
	H347	H	0.527904	0.634908	0.657284
	O348	O	0.555462	0.617065	0.490258
	H349	H	0.558721	0.610840	0.467607
	H350	H	0.555448	0.624011	0.512933
	O351	O	0.006902	-0.139114	-0.169279
	H352	H	0.012319	-0.139350	-0.168528
	H353	H	0.009801	-0.141095	-0.154328
	O354	O	0.882638	0.860781	-0.091515
	H355	H	0.889113	0.866419	-0.099024
	H356	H	0.906029	0.854724	-0.083690
	O357	O	-0.027466	0.964007	0.147664
	H358	H	-0.014661	0.962484	0.148660
	H359	H	-0.028885	0.945006	0.153062
	O360	O	0.295247	0.676161	0.445547
	H361	H	0.286062	0.671209	0.431869
	H362	H	0.282035	0.688693	0.436207
	O363	O	0.553907	0.370983	0.485553
	H364	H	0.545417	0.386045	0.501930
	H365	H	0.553386	0.380608	0.498515
	O366	O	0.390622	0.682987	0.298376
	H367	H	0.404621	0.675402	0.307679
	H368	H	0.392903	0.689828	0.272642
	O369	O	0.324163	0.540638	0.355483
	H370	H	0.341122	0.540108	0.357346
	H371	H	0.327152	0.530154	0.350381
	O372	O	0.645765	0.499688	0.566486
	H373	H	0.642779	0.502954	0.562425
	H374	H	0.650912	0.492072	0.573566
	O375	O	0.540970	0.648722	0.426788
	H376	H	0.551407	0.656156	0.437490
	H377	H	0.547248	0.657245	0.421786
	O378	O	0.358967	0.477036	0.646202
	H379	H	0.343086	0.483668	0.631046
	H380	H	0.345082	0.462809	0.659610
	O381	O	0.309021	0.370557	0.676837
	H382	H	0.307812	0.392386	0.673066
	H383	H	0.295091	0.370363	0.663438
	O384	O	-0.160191	1.012815	0.988419
	H385	H	-0.163938	1.016128	1.000849
	H386	H	-0.167314	1.004512	0.990706
	O387	O	1.171072	0.820724	-0.070828
	H388	H	1.174922	0.816475	-0.047975
	H389	H	1.166759	0.828307	-0.055068
	O390	O	0.467155	0.446506	0.627479
	H391	H	0.455822	0.446558	0.631085
	H392	H	0.463176	0.446427	0.631964
	O393	O	1.415985	-0.674709	1.525004
	H394	H	1.415993	-0.676030	1.527427
	H395	H	1.412646	-0.671163	1.544538
	O396	O	0.056467	0.925897	1.025005
	H397	H	0.058827	0.937514	1.038739
	H398	H	0.040026	0.926065	1.010803
	O399	O	0.656144	0.490494	0.456323
	H400	H	0.644595	0.506590	0.460780
	H401	H	0.672453	0.490593	0.457570
	O402	O	0.925793	-0.140523	1.182368
	H403	H	0.924016	-0.149769	1.193627
	H404	H	0.934523	-0.132355	1.170836
	O405	O	0.061221	0.113263	-0.084536
	H406	H	0.079333	0.115165	-0.089468
	H407	H	0.043469	0.117953	-0.087428
	O408	O	0.785488	1.202265	0.973338
	H409	H	0.763256	1.213214	0.980734
	H410	H	0.787745	1.200986	0.944432
	O411	O	1.069327	0.948694	-0.189201
	H412	H	1.081880	0.938740	-0.206488
	H413	H	1.087307	0.943717	-0.172412
	O414	O	0.076396	0.139807	0.983465
	H415	H	0.061829	0.146462	0.989993
	H416	H	0.085920	0.140944	0.969621
	O417	O	0.924459	-0.094981	0.998189
	H418	H	0.911003	-0.100160	0.993617
	H419	H	0.927149	-0.083464	1.009159
	O420	O	-0.028774	1.104332	0.140870
	H421	H	-0.035687	1.096986	0.139408
	H422	H	-0.039795	1.098469	0.132249
	O423	O	1.589791	0.344580	-0.679157
	H424	H	1.605056	0.326420	-0.676396
	H425	H	1.600867	0.329417	-0.674548
	O426	O	-0.151011	-0.150271	1.006006
	H427	H	-0.146698	-0.136658	1.007390
	H428	H	-0.152797	-0.150961	1.004775
	O429	O	0.662680	0.310309	0.453121
	H430	H	0.660943	0.317027	0.475732
	H431	H	0.668274	0.300337	0.469519
