data_Molecule from HDF5

_cell_length_a		16.659061
_cell_length_b		16.486456
_cell_length_c		16.403084
_cell_angle_alpha	90.043695
_cell_angle_beta	89.939175
_cell_angle_gamma	90.167449
_symmetry_space_group_name_H-M	'P 1'
_symmetry_Int_Tables_number		1

loop_
	_symmetry_equiv_pos_as_xyz
	x,y,z

loop_
	_atom_site_label
	_atom_site_type_symbol
	_atom_site_fract_x
	_atom_site_fract_y
	_atom_site_fract_z
	H0	H	0.384558	0.858430	0.721822
	H1	H	0.596086	0.172544	0.727769
	H2	H	0.591414	0.857117	0.282909
	H3	H	0.388088	0.174034	0.286086
	H4	H	0.713516	0.406746	0.846547
	H5	H	0.710459	0.623716	0.160394
	H6	H	0.269635	0.620316	0.845529
	H7	H	0.266905	0.408775	0.159476
	H8	H	0.830487	0.738159	0.397619
	H9	H	0.142739	0.738791	0.606887
	H10	H	0.831486	0.291672	0.613193
	H11	H	0.141511	0.294331	0.398685
	H12	H	0.832599	0.408406	0.729625
	H13	H	0.144866	0.619552	0.722648
	H14	H	0.830650	0.620374	0.281592
	H15	H	0.143349	0.413936	0.284449
	H16	H	0.387607	0.734083	0.844587
	H17	H	0.591992	0.735757	0.162125
	H18	H	0.597457	0.291406	0.845210
	H19	H	0.385539	0.295163	0.160740
	H20	H	0.710304	0.858833	0.395687
	H21	H	0.715405	0.170274	0.615424
	H22	H	0.265004	0.860744	0.609560
	H23	H	0.266474	0.172359	0.397325
	H24	H	0.885276	0.357015	0.221990
	H25	H	0.089974	0.674752	0.221333
	H26	H	0.093892	0.358468	0.780654
	H27	H	0.887091	0.673922	0.784943
	H28	H	0.208010	0.910964	0.345574
	H29	H	0.207283	0.121645	0.659883
	H30	H	0.764858	0.122219	0.345983
	H31	H	0.765637	0.910469	0.660004
	H32	H	0.333298	0.237416	0.898228
	H33	H	0.644119	0.238230	0.110106
	H34	H	0.331239	0.799216	0.102793
	H35	H	0.645777	0.798166	0.900669
	H36	H	0.329658	0.916143	0.219070
	H37	H	0.644016	0.120011	0.226022
	H38	H	0.331626	0.118746	0.783317
	H39	H	0.643190	0.913223	0.781394
	H40	H	0.880496	0.237940	0.345866
	H41	H	0.089426	0.234977	0.662244
	H42	H	0.087469	0.799109	0.344119
	H43	H	0.884647	0.797983	0.662929
	H44	H	0.213509	0.360604	0.893219
	H45	H	0.209688	0.672835	0.106899
	H46	H	0.764559	0.360086	0.111854
	H47	H	0.766589	0.672050	0.897251
	H48	H	0.392683	0.128994	0.585577
	H49	H	0.577042	0.904157	0.590936
	H50	H	0.574895	0.128169	0.410860
	H51	H	0.395444	0.901271	0.413323
	H52	H	0.578246	0.432591	0.113647
	H53	H	0.578011	0.604539	0.890475
	H54	H	0.399735	0.602721	0.115959
	H55	H	0.402223	0.434269	0.893339
	H56	H	0.100145	0.608974	0.407650
	H57	H	0.872636	0.611361	0.595952
	H58	H	0.097314	0.429620	0.593749
	H59	H	0.875449	0.429142	0.415645
	H60	H	0.099744	0.422836	0.592974
	H61	H	0.877458	0.604610	0.588599
	H62	H	0.099523	0.613291	0.415961
	H63	H	0.874275	0.427290	0.411954
	H64	H	0.400236	0.609858	0.118110
	H65	H	0.579523	0.606323	0.888942
	H66	H	0.570880	0.429028	0.112697
	H67	H	0.406472	0.425355	0.890527
	H68	H	0.573051	0.124409	0.421545
	H69	H	0.572013	0.906093	0.589715
	H70	H	0.394168	0.133578	0.598236
	H71	H	0.394058	0.900896	0.413957
	H72	H	0.898101	0.627230	0.085782
	H73	H	0.084719	0.400926	0.090790
	H74	H	0.078202	0.628828	0.910463
	H75	H	0.901152	0.403598	0.915754
	H76	H	0.075203	0.926783	0.617348
	H77	H	0.077759	0.101426	0.389728
	H78	H	0.891637	0.102032	0.618072
	H79	H	0.899387	0.933635	0.392152
	H80	H	0.597803	0.097628	0.914463
	H81	H	0.376377	0.110344	0.090567
	H82	H	0.601929	0.929989	0.098422
	H83	H	0.375064	0.922713	0.912363
	H84	H	0.603783	0.920405	0.096172
	H85	H	0.378742	0.102329	0.090499
	H86	H	0.601926	0.105865	0.911988
	H87	H	0.376289	0.923593	0.913861
	H88	H	0.902573	0.094411	0.611753
	H89	H	0.072439	0.106039	0.390329
	H90	H	0.079373	0.928426	0.617709
	H91	H	0.902849	0.923091	0.389970
	H92	H	0.077914	0.626500	0.918238
	H93	H	0.077421	0.400888	0.097571
	H94	H	0.893699	0.631155	0.093752
	H95	H	0.902271	0.405684	0.919496
	H96	H	0.404721	0.127878	0.592157
	H97	H	0.576198	0.906154	0.585483
	H98	H	0.582744	0.128636	0.418101
	H99	H	0.394402	0.900426	0.411942
	H100	H	0.577376	0.424886	0.115988
	H101	H	0.580576	0.604065	0.889779
	H102	H	0.393986	0.605574	0.119775
	H103	H	0.396526	0.427126	0.888441
	H104	H	0.096467	0.604989	0.415161
	H105	H	0.875537	0.601242	0.598877
	H106	H	0.096182	0.425877	0.587147
	H107	H	0.874948	0.424262	0.415648
	H108	H	0.902900	0.627120	0.094442
	H109	H	0.075776	0.404952	0.088957
	H110	H	0.084694	0.629873	0.915798
	H111	H	0.898187	0.403560	0.918891
	H112	H	0.075671	0.930896	0.615864
	H113	H	0.078568	0.107917	0.387403
	H114	H	0.904786	0.108948	0.615493
	H115	H	0.892221	0.926203	0.387781
	H116	H	0.597905	0.104634	0.920677
	H117	H	0.375462	0.105986	0.097617
	H118	H	0.599694	0.926359	0.089426
	H119	H	0.374592	0.924711	0.912161
	C120	C	0.365986	0.025642	0.623965
	C121	C	0.608705	1.008109	0.623720
	C122	C	0.608809	0.023544	0.382982
	C123	C	0.365193	1.006321	0.381989
	C124	C	0.609899	0.394248	0.010777
	C125	C	0.610441	0.636904	0.994467
	C126	C	0.367658	0.636809	0.012464
	C127	C	0.368443	0.395007	0.994090
	C128	C	-0.004716	0.639695	0.380714
	C129	C	0.978960	0.637610	0.625114
	C130	C	-0.004489	0.393327	0.625937
	C131	C	0.977889	0.394936	0.382348
	C132	C	0.866003	0.524672	0.124884
	C133	C	0.110027	0.507149	0.124022
	C134	C	0.111711	0.524818	0.881355
	C135	C	0.868669	0.507937	0.884616
	C136	C	0.107589	0.896598	0.511750
	C137	C	0.107829	0.137333	0.493869
	C138	C	0.866347	0.135617	0.511589
	C139	C	0.866241	0.895364	0.494840
	C140	C	0.496559	0.135880	0.882425
	C141	C	0.480014	0.138096	0.125556
	C142	C	0.497425	0.894735	0.124947
	C143	C	0.479056	0.892963	0.880752
	C144	C	0.365034	0.906386	0.682877
	C145	C	0.613536	0.125240	0.687022
	C146	C	0.610416	0.904971	0.322392
	C147	C	0.366952	0.126208	0.324231
	C148	C	0.672387	0.389604	0.893348
	C149	C	0.670193	0.640420	0.113351
	C150	C	0.309144	0.638503	0.892938
	C151	C	0.307465	0.391084	0.112408
	C152	C	0.877599	0.698417	0.378873
	C153	C	0.096524	0.697928	0.625594
	C154	C	0.878541	0.331960	0.630689
	C155	C	0.095128	0.334913	0.380263
	C156	C	0.879239	0.389948	0.688917
	C157	C	0.097609	0.638886	0.682961
	C158	C	0.877708	0.640101	0.320916
	C159	C	0.096145	0.394431	0.323601
	C160	C	0.367705	0.695212	0.892455
	C161	C	0.611621	0.696636	0.113915
	C162	C	0.614814	0.331867	0.892799
	C163	C	0.366346	0.334687	0.113011
	C164	C	0.669627	0.905617	0.378486
	C165	C	0.672927	0.124246	0.630891
	C166	C	0.305541	0.907503	0.627148
	C167	C	0.306616	0.125329	0.379267
	C168	C	0.865515	0.405430	0.183715
	C169	C	0.110031	0.626850	0.182529
	C170	C	0.113050	0.406257	0.820346
	C171	C	0.867786	0.626491	0.824425
	C172	C	0.167246	0.893571	0.392718
	C173	C	0.167369	0.139517	0.612777
	C174	C	0.805156	0.139943	0.393318
	C175	C	0.806328	0.892790	0.613565
	C176	C	0.379736	0.196872	0.879784
	C177	C	0.597539	0.197778	0.128012
	C178	C	0.378353	0.837927	0.122982
	C179	C	0.598085	0.836547	0.880771
	C180	C	0.377627	0.895739	0.180996
	C181	C	0.597259	0.139116	0.185767
	C182	C	0.378756	0.137743	0.822898
	C183	C	0.597046	0.893841	0.821723
	C184	C	0.862924	0.197467	0.393204
	C185	C	0.108690	0.195975	0.613853
	C186	C	0.107490	0.837828	0.392000
	C187	C	0.865059	0.836900	0.614827
	C188	C	0.172544	0.407082	0.876454
	C189	C	0.169352	0.625930	0.125745
	C190	C	0.805350	0.406740	0.128904
	C191	C	0.807977	0.625494	0.880359
	C192	C	0.390269	0.108365	0.599155
	C193	C	0.582393	0.926651	0.596456
	C194	C	0.583864	0.105649	0.409263
	C195	C	0.388071	0.922869	0.406098
	C196	C	0.583233	0.421204	0.092759
	C197	C	0.586320	0.611947	0.911348
	C198	C	0.391083	0.612893	0.095975
	C199	C	0.394187	0.421412	0.912092
	C200	C	0.077202	0.615880	0.405764
	C201	C	0.896640	0.612919	0.601290
	C202	C	0.076605	0.418828	0.599177
	C203	C	0.896167	0.419580	0.407250
	C204	C	0.891090	0.606954	0.098855
	C205	C	0.086057	0.423931	0.099490
	C206	C	0.087340	0.607087	0.907334
	C207	C	0.893396	0.425706	0.910785
	C208	C	0.083816	0.921570	0.595139
	C209	C	0.083381	0.112444	0.410919
	C210	C	0.892369	0.109366	0.593721
	C211	C	0.891087	0.920364	0.411518
	C212	C	0.577971	0.109928	0.908228
	C213	C	0.398311	0.113401	0.100173
	C214	C	0.580166	0.918585	0.101547
	C215	C	0.396709	0.916704	0.905659
	Zn216	Zn	0.487692	0.016214	0.752045
	Zn217	Zn	0.487576	0.015424	0.254609
	Zn218	Zn	0.738233	0.515554	0.003672
	Zn219	Zn	0.239544	0.515354	0.002917
	Zn220	Zn	-0.013623	0.767748	0.503825
	Zn221	Zn	-0.013776	0.265147	0.503661
	Zn222	Zn	-0.011336	0.516085	0.754430
	Zn223	Zn	-0.012541	0.516540	0.252252
	Zn224	Zn	0.489302	0.764703	0.003748
	Zn225	Zn	0.489176	0.266207	0.002720
	Zn226	Zn	0.737929	0.015409	0.503433
	Zn227	Zn	0.237154	0.016271	0.502951
	N228	N	0.401823	0.980866	0.681271
	N229	N	0.574195	0.052043	0.682703
	N230	N	0.573360	0.979286	0.324908
	N231	N	0.402397	0.051162	0.325677
	N232	N	0.669780	0.427463	0.967958
	N233	N	0.669683	0.603753	0.038059
	N234	N	0.309191	0.602631	0.968377
	N235	N	0.308441	0.427800	0.037408
	N236	N	0.951715	0.698313	0.415225
	N237	N	0.021770	0.697156	0.590393
	N238	N	0.951952	0.333651	0.592438
	N239	N	0.020489	0.334916	0.415745
	N240	N	0.953142	0.427123	0.686380
	N241	N	0.023448	0.602233	0.682898
	N242	N	0.952038	0.604420	0.321763
	N243	N	0.022271	0.430901	0.324505
	N244	N	0.403640	0.694158	0.967578
	N245	N	0.575294	0.694856	0.038927
	N246	N	0.576624	0.334667	0.966984
	N247	N	0.403584	0.337087	0.038432
	N248	N	0.669129	0.980547	0.415312
	N249	N	0.670019	0.050522	0.592049
	N250	N	0.305829	0.982733	0.591287
	N251	N	0.305154	0.049609	0.414167
	N252	N	0.902470	0.479849	0.181429
	N253	N	0.074019	0.551908	0.181709
	N254	N	0.075899	0.480441	0.823343
	N255	N	0.904973	0.552336	0.827009
	N256	N	0.167358	0.929261	0.468209
	N257	N	0.167292	0.103975	0.537074
	N258	N	0.807017	0.102528	0.468033
	N259	N	0.806744	0.928010	0.537648
	N260	N	0.454100	0.195962	0.915930
	N261	N	0.523560	0.197248	0.091359
	N262	N	0.453985	0.836736	0.089387
	N263	N	0.523632	0.835724	0.916502
	N264	N	0.452798	0.930036	0.182749
	N265	N	0.523121	0.102677	0.184520
	N266	N	0.452646	0.100961	0.824263
	N267	N	0.521902	0.927857	0.821390
	N268	N	0.900089	0.195232	0.467949
	N269	N	0.072297	0.194899	0.538775
	N270	N	0.071358	0.839243	0.467260
	N271	N	0.901408	0.838199	0.539735
	N272	N	0.172019	0.481741	0.913334
	N273	N	0.169754	0.550362	0.090487
	N274	N	0.805492	0.481994	0.093187
	N275	N	0.808503	0.550682	0.916925
	O276	O	0.772990	1.228115	-0.081354
	H277	H	0.758944	1.253865	-0.076596
	H278	H	0.792323	1.217327	-0.069045
	O279	O	0.087109	-0.195716	0.974766
	H280	H	0.078294	-0.200467	0.962049
	H281	H	0.094779	-0.191410	0.946673
	O282	O	0.467948	0.632306	0.499404
	H283	H	0.478254	0.634841	0.498296
	H284	H	0.465583	0.627829	0.501919
	O285	O	0.098340	-0.008942	0.849439
	H286	H	0.096117	-0.020283	0.838190
	H287	H	0.100455	0.001852	0.836878
	O288	O	1.167555	-0.036261	1.040679
	H289	H	1.157800	-0.025048	1.052151
	H290	H	1.171010	-0.027135	1.036113
	O291	O	0.553908	0.521734	0.610346
	H292	H	0.564547	0.506271	0.630679
	H293	H	0.560399	0.524021	0.597925
	O294	O	-0.031705	-0.072338	0.008662
	H295	H	-0.034777	-0.061706	0.009209
	H296	H	-0.036450	-0.071964	0.006246
	O297	O	1.197029	0.100681	0.217992
	H298	H	1.178336	0.076323	0.224053
	H299	H	1.202967	0.088634	0.223509
	O300	O	-0.066058	0.071874	0.220762
	H301	H	-0.067395	0.093540	0.226823
	H302	H	-0.064930	0.078698	0.206011
	O303	O	-0.298305	-0.274081	-0.283158
	H304	H	-0.285335	-0.273773	-0.272037
	H305	H	-0.319778	-0.280083	-0.299420
	O306	O	1.053023	-0.140976	-0.195274
	H307	H	1.089739	-0.149422	-0.201812
	H308	H	1.050348	-0.165240	-0.213212
	O309	O	0.780810	0.986464	0.215875
	H310	H	0.787043	1.006146	0.199728
	H311	H	0.768962	1.001589	0.241466
	O312	O	0.019090	0.238436	0.224490
	H313	H	0.026640	0.270781	0.259556
	H314	H	0.054998	0.228925	0.220460
	O315	O	0.696399	0.614377	0.425987
	H316	H	0.693654	0.608782	0.417139
	H317	H	0.693069	0.624653	0.419708
	O318	O	1.109549	0.918840	-0.197791
	H319	H	1.134534	0.895355	-0.200904
	H320	H	1.119119	0.945043	-0.208206
	O321	O	-0.731816	0.341361	0.503879
	H322	H	-0.744342	0.324998	0.523356
	H323	H	-0.735705	0.348786	0.518153
	O324	O	1.001814	-0.106249	0.826613
	H325	H	0.996736	-0.138108	0.811900
	H326	H	1.012667	-0.097408	0.842371
	O327	O	0.791718	0.823052	0.194769
	H328	H	0.813007	0.813827	0.179885
	H329	H	0.783837	0.875492	0.203441
	O330	O	0.281224	0.719307	0.324536
	H331	H	0.291676	0.734072	0.315429
	H332	H	0.273174	0.717945	0.316348
	O333	O	0.555540	0.454211	0.607939
	H334	H	0.553897	0.455750	0.602392
	H335	H	0.557303	0.451475	0.609067
	O336	O	0.801563	-0.169439	0.818800
	H337	H	0.794066	-0.175626	0.812741
	H338	H	0.806765	-0.135161	0.824138
	O339	O	0.397101	0.532387	0.581438
	H340	H	0.393794	0.541388	0.573704
	H341	H	0.419754	0.524505	0.578744
	O342	O	-0.069498	1.223675	-0.195407
	H343	H	-0.045559	1.242773	-0.196784
	H344	H	-0.056829	1.232229	-0.190843
	O345	O	0.216861	0.242071	0.787741
	H346	H	0.195325	0.218783	0.800477
	H347	H	0.219236	0.244624	0.791936
	O348	O	0.550812	0.551359	0.309445
	H349	H	0.555844	0.554997	0.308039
	H350	H	0.539428	0.545976	0.323525
	O351	O	-0.208254	0.095973	0.808619
	H352	H	-0.219419	0.111540	0.825172
	H353	H	-0.173094	0.108220	0.800639
	O354	O	0.956085	-0.195290	1.212777
	H355	H	0.955038	-0.227711	1.244958
	H356	H	0.945410	-0.190407	1.190486
	O357	O	0.488336	0.394864	0.474947
	H358	H	0.488431	0.394307	0.493096
	H359	H	0.488658	0.401599	0.480818
	O360	O	0.606752	0.719098	0.409117
	H361	H	0.603349	0.715879	0.421111
	H362	H	0.620419	0.720667	0.395409
	O363	O	0.413637	0.743007	0.279328
	H364	H	0.428391	0.738530	0.294823
	H365	H	0.408042	0.769745	0.268317
	O366	O	0.835454	0.045279	0.855011
	H367	H	0.849243	0.030759	0.855509
	H368	H	0.831199	0.055818	0.854669
	O369	O	-0.035589	0.143263	0.995920
	H370	H	-0.058728	0.150076	1.011922
	H371	H	-0.024337	0.138806	1.014543
	O372	O	0.205154	1.175938	1.030156
	H373	H	0.221361	1.191147	1.037437
	H374	H	0.206252	1.168476	1.048995
	O375	O	1.052036	-0.039412	0.208457
	H376	H	1.037451	-0.032175	0.204438
	H377	H	1.028705	-0.047883	0.199344
	O378	O	1.575454	-0.662696	0.545064
	H379	H	1.579537	-0.657700	0.544319
	H380	H	1.571728	-0.659875	0.528344
	O381	O	-0.224884	0.813897	0.027149
	H382	H	-0.213432	0.817284	0.043406
	H383	H	-0.243554	0.799621	0.023466
	O384	O	0.266758	0.487671	-0.279926
	H385	H	0.255095	0.475330	-0.256122
	H386	H	0.265251	0.461318	-0.271484
	O387	O	0.159032	0.927840	0.993437
	H388	H	0.153587	0.928112	1.005690
	H389	H	0.146457	0.933604	1.003487
	O390	O	0.078216	1.134093	0.816505
	H391	H	0.058567	1.136448	0.812637
	H392	H	0.074004	1.109433	0.818973
	O393	O	0.667764	0.475782	-0.473362
	H394	H	0.658265	0.468711	-0.471971
	H395	H	0.672904	0.485998	-0.478136
	O396	O	0.258338	0.749079	0.744059
	H397	H	0.276232	0.738578	0.724752
	H398	H	0.277337	0.732165	0.749528
	O399	O	0.273232	0.705532	0.494062
	H400	H	0.289004	0.702102	0.468619
	H401	H	0.253092	0.713885	0.488791
	O402	O	1.448716	0.327568	0.714291
	H403	H	1.459229	0.331694	0.693906
	H404	H	1.459426	0.301381	0.742487
	O405	O	0.441297	0.532242	0.663276
	H406	H	0.425295	0.527125	0.660743
	H407	H	0.446933	0.547853	0.664417
	O408	O	0.832419	1.141029	1.133913
	H409	H	0.827951	1.130506	1.121091
	H410	H	0.817927	1.163149	1.129685
	O411	O	0.642858	0.734326	0.520897
	H412	H	0.643073	0.728790	0.526049
	H413	H	0.658866	0.744037	0.522470
	O414	O	-0.059347	0.016046	-0.005585
	H415	H	-0.050423	0.009878	0.006272
	H416	H	-0.061715	0.012924	-0.009960
	O417	O	0.295372	0.326189	0.312866
	H418	H	0.305968	0.345171	0.315271
	H419	H	0.305746	0.334154	0.331190
	O420	O	0.804833	0.076567	0.989725
	H421	H	0.799698	0.044731	0.995969
	H422	H	0.803038	0.080452	0.969929
	O423	O	1.426199	0.469253	0.321247
	H424	H	1.440892	0.467152	0.309312
	H425	H	1.409021	0.493072	0.328213
	O426	O	0.449750	0.565616	0.394771
	H427	H	0.416452	0.557933	0.393067
	H428	H	0.448772	0.554015	0.403876
	O429	O	0.683255	0.317277	0.314569
	H430	H	0.653300	0.337443	0.305407
	H431	H	0.681301	0.327047	0.340912
	O432	O	1.702614	0.301798	0.478150
	H433	H	1.703804	0.306925	0.476344
	H434	H	1.714180	0.292696	0.474737
	O435	O	0.312529	0.581546	0.594953
	H436	H	0.310789	0.576030	0.585877
	H437	H	0.312163	0.577067	0.615853
	O438	O	0.287917	0.315773	0.656851
	H439	H	0.302362	0.304585	0.679351
	H440	H	0.303131	0.300268	0.654312
	O441	O	0.703920	0.548672	0.716843
	H442	H	0.711295	0.540078	0.712025
	H443	H	0.709251	0.554775	0.728887
	O444	O	0.707239	0.482158	0.285801
	H445	H	0.735531	0.483939	0.250747
	H446	H	0.686034	0.487012	0.291048
	O447	O	1.175009	0.222211	1.166269
	H448	H	1.176977	0.187652	1.159767
	H449	H	1.198626	0.242960	1.193376
	O450	O	1.270556	0.547714	0.288271
	H451	H	1.253920	0.546800	0.294434
	H452	H	1.255552	0.574547	0.276371
	O453	O	-0.081047	0.220267	0.092426
	H454	H	-0.064245	0.229308	0.114143
	H455	H	-0.096500	0.228833	0.101260
	O456	O	0.185257	0.893254	1.194437
	H457	H	0.180240	0.898651	1.178332
	H458	H	0.171130	0.906494	1.182796
	O459	O	0.261208	0.485865	0.478799
	H460	H	0.257597	0.502797	0.474176
	H461	H	0.255273	0.476006	0.492247
	O462	O	0.552732	0.350153	0.608075
	H463	H	0.547316	0.354871	0.614701
	H464	H	0.567273	0.350710	0.599103
	O465	O	0.520836	0.305949	0.295430
	H466	H	0.512398	0.283700	0.278457
	H467	H	0.517078	0.322679	0.306427
	O468	O	0.521738	0.734802	0.722151
	H469	H	0.520446	0.756027	0.742952
	H470	H	0.523223	0.735039	0.714966
	O471	O	1.085473	1.168275	-0.089667
	H472	H	1.094543	1.163753	-0.076643
	H473	H	1.096279	1.157975	-0.085520
	O474	O	1.996989	0.807576	1.043415
	H475	H	2.001812	0.801477	1.047459
	H476	H	1.980157	0.800680	1.028967
	O477	O	0.535445	0.703852	0.496906
	H478	H	0.538096	0.703503	0.488515
	H479	H	0.533207	0.698877	0.496682
