data_Molecule from HDF5

_cell_length_a		16.437656
_cell_length_b		16.504321
_cell_length_c		16.465692
_cell_angle_alpha	90.008480
_cell_angle_beta	89.967410
_cell_angle_gamma	90.008138
_symmetry_space_group_name_H-M	'P 1'
_symmetry_Int_Tables_number		1

loop_
	_symmetry_equiv_pos_as_xyz
	x,y,z

loop_
	_atom_site_label
	_atom_site_type_symbol
	_atom_site_fract_x
	_atom_site_fract_y
	_atom_site_fract_z
	H0	H	0.397324	0.852188	0.728831
	H1	H	0.612675	0.165776	0.729188
	H2	H	0.611499	0.852561	0.283170
	H3	H	0.398787	0.167272	0.284111
	H4	H	0.727725	0.400252	0.847511
	H5	H	0.725646	0.615485	0.160671
	H6	H	0.279214	0.618261	0.847152
	H7	H	0.281532	0.404197	0.162162
	H8	H	0.846629	0.730672	0.400098
	H9	H	0.161167	0.732392	0.615273
	H10	H	0.847752	0.282591	0.614622
	H11	H	0.162691	0.289551	0.399639
	H12	H	0.846828	0.400133	0.729562
	H13	H	0.160837	0.617053	0.729910
	H14	H	0.846341	0.615663	0.283335
	H15	H	0.162103	0.404310	0.283568
	H16	H	0.393231	0.736210	0.847917
	H17	H	0.611043	0.733975	0.159556
	H18	H	0.613859	0.282249	0.848716
	H19	H	0.397540	0.287928	0.162229
	H20	H	0.727942	0.852203	0.399039
	H21	H	0.728298	0.166437	0.612152
	H22	H	0.280774	0.852943	0.613336
	H23	H	0.280690	0.165400	0.398243
	H24	H	0.896317	0.352709	0.228201
	H25	H	0.112102	0.664407	0.228545
	H26	H	0.110589	0.352558	0.781744
	H27	H	0.893198	0.664996	0.778498
	H28	H	0.228059	0.902345	0.349602
	H29	H	0.230370	0.120041	0.659944
	H30	H	0.784735	0.111460	0.347095
	H31	H	0.779765	0.899766	0.662554
	H32	H	0.347659	0.230874	0.899483
	H33	H	0.660951	0.234300	0.114202
	H34	H	0.347469	0.788440	0.111160
	H35	H	0.660474	0.784591	0.894947
	H36	H	0.348679	0.903965	0.228714
	H37	H	0.662803	0.115875	0.227626
	H38	H	0.348549	0.118252	0.780488
	H39	H	0.661322	0.900411	0.780992
	H40	H	0.897389	0.230748	0.347798
	H41	H	0.114850	0.236692	0.659418
	H42	H	0.112471	0.785293	0.349958
	H43	H	0.895445	0.783242	0.662620
	H44	H	0.227949	0.353206	0.897552
	H45	H	0.228999	0.664571	0.113241
	H46	H	0.780816	0.352177	0.110192
	H47	H	0.777269	0.664768	0.894185
	H48	H	0.416382	0.123092	0.596356
	H49	H	0.586966	0.900319	0.591875
	H50	H	0.592352	0.120271	0.419126
	H51	H	0.414956	0.897559	0.420726
	H52	H	0.591227	0.421486	0.115989
	H53	H	0.591510	0.598878	0.890163
	H54	H	0.413961	0.598154	0.116733
	H55	H	0.417376	0.418656	0.892099
	H56	H	0.117967	0.600721	0.419092
	H57	H	0.891439	0.600116	0.591493
	H58	H	0.113860	0.422929	0.588595
	H59	H	0.887764	0.411979	0.416021
	H60	H	0.114953	0.426042	0.595241
	H61	H	0.895112	0.593623	0.586760
	H62	H	0.114775	0.593251	0.418705
	H63	H	0.893444	0.422956	0.423536
	H64	H	0.417531	0.595667	0.113735
	H65	H	0.590588	0.592925	0.892665
	H66	H	0.591782	0.421184	0.117247
	H67	H	0.415880	0.421243	0.893025
	H68	H	0.598356	0.123189	0.417795
	H69	H	0.597583	0.897312	0.588470
	H70	H	0.422927	0.118070	0.592032
	H71	H	0.416862	0.896361	0.413640
	H72	H	0.913779	0.620093	0.089588
	H73	H	0.088832	0.398401	0.090642
	H74	H	0.086990	0.620633	0.911661
	H75	H	0.914127	0.397646	0.918067
	H76	H	0.088149	0.924474	0.616446
	H77	H	0.090025	0.102031	0.391927
	H78	H	0.917355	0.095290	0.616647
	H79	H	0.915465	0.921294	0.393490
	H80	H	0.616088	0.098656	0.923465
	H81	H	0.391671	0.099416	0.095652
	H82	H	0.617086	0.921440	0.091031
	H83	H	0.394187	0.923866	0.922123
	H84	H	0.618027	0.923303	0.093603
	H85	H	0.392708	0.097938	0.093861
	H86	H	0.614917	0.090651	0.918133
	H87	H	0.393425	0.927370	0.915882
	H88	H	0.919358	0.096593	0.617428
	H89	H	0.097201	0.096776	0.391066
	H90	H	0.090484	0.917021	0.619414
	H91	H	0.918791	0.920937	0.396187
	H92	H	0.088392	0.618479	0.923255
	H93	H	0.094476	0.396839	0.089792
	H94	H	0.910024	0.623789	0.095283
	H95	H	0.917878	0.397744	0.915140
	H96	H	0.414484	0.119906	0.588053
	H97	H	0.593659	0.894909	0.599386
	H98	H	0.593678	0.122187	0.412671
	H99	H	0.421860	0.898851	0.418033
	H100	H	0.591765	0.421816	0.115900
	H101	H	0.585731	0.597210	0.892877
	H102	H	0.418495	0.600478	0.115704
	H103	H	0.419207	0.420682	0.892525
	H104	H	0.118004	0.596025	0.412243
	H105	H	0.892127	0.592152	0.595067
	H106	H	0.116655	0.419598	0.593471
	H107	H	0.890386	0.424605	0.409547
	H108	H	0.917445	0.621391	0.096206
	H109	H	0.091996	0.395123	0.095562
	H110	H	0.097308	0.624233	0.917114
	H111	H	0.918152	0.399509	0.919394
	H112	H	0.096400	0.923106	0.619022
	H113	H	0.089761	0.093778	0.395032
	H114	H	0.917346	0.096853	0.617636
	H115	H	0.917323	0.917576	0.393962
	H116	H	0.619423	0.098394	0.914464
	H117	H	0.391447	0.097062	0.096328
	H118	H	0.618567	0.919917	0.093522
	H119	H	0.391117	0.920198	0.916572
	C120	C	0.383350	0.017669	0.626734
	C121	C	0.626341	1.000925	0.626793
	C122	C	0.627257	0.018111	0.383802
	C123	C	0.384026	1.001104	0.384209
	C124	C	0.625699	0.387002	0.013207
	C125	C	0.623667	0.630380	0.995085
	C126	C	0.382093	0.632037	0.012193
	C127	C	0.383520	0.387830	0.996519
	C128	C	0.013099	0.630287	0.383843
	C129	C	0.996104	0.629594	0.626082
	C130	C	0.012145	0.387583	0.626637
	C131	C	0.995063	0.387896	0.383372
	C132	C	0.881551	0.517959	0.126315
	C133	C	0.124942	0.500491	0.125045
	C134	C	0.124917	0.517696	0.883870
	C135	C	0.881788	0.501020	0.882664
	C136	C	0.125376	0.887985	0.514707
	C137	C	0.126506	0.131713	0.495673
	C138	C	0.884489	0.128996	0.513529
	C139	C	0.882998	0.886220	0.497763
	C140	C	0.513434	0.129839	0.884640
	C141	C	0.496050	0.131298	0.127794
	C142	C	0.513620	0.888596	0.126029
	C143	C	0.495929	0.888919	0.883637
	C144	C	0.379450	0.899636	0.688501
	C145	C	0.630130	0.118840	0.688357
	C146	C	0.629713	0.899576	0.323311
	C147	C	0.380889	0.119455	0.323832
	C148	C	0.687486	0.382615	0.894879
	C149	C	0.685141	0.633655	0.113471
	C150	C	0.319690	0.635819	0.894335
	C151	C	0.322231	0.385997	0.114870
	C152	C	0.894227	0.690869	0.381598
	C153	C	0.113903	0.691700	0.631633
	C154	C	0.894664	0.324088	0.631538
	C155	C	0.114630	0.328601	0.381157
	C156	C	0.894115	0.382790	0.688687
	C157	C	0.113604	0.634270	0.689045
	C158	C	0.894207	0.633638	0.323372
	C159	C	0.114333	0.385966	0.323211
	C160	C	0.376473	0.694737	0.894738
	C161	C	0.628406	0.692729	0.112855
	C162	C	0.630409	0.323937	0.895641
	C163	C	0.380036	0.328068	0.115058
	C164	C	0.687794	0.899532	0.380906
	C165	C	0.687833	0.119090	0.630080
	C166	C	0.321204	0.899884	0.630878
	C167	C	0.321889	0.118652	0.380702
	C168	C	0.878511	0.399833	0.187476
	C169	C	0.129225	0.617895	0.187229
	C170	C	0.128716	0.399804	0.822192
	C171	C	0.876423	0.618033	0.819662
	C172	C	0.187200	0.884603	0.396507
	C173	C	0.189013	0.137106	0.613301
	C174	C	0.823771	0.130949	0.394815
	C175	C	0.820824	0.882435	0.615632
	C176	C	0.394866	0.190838	0.881519
	C177	C	0.614296	0.192909	0.131218
	C178	C	0.395047	0.828226	0.129505
	C179	C	0.613422	0.825594	0.878367
	C180	C	0.395512	0.885904	0.187721
	C181	C	0.615199	0.134182	0.187797
	C182	C	0.395622	0.134846	0.822182
	C183	C	0.614062	0.883509	0.821456
	C184	C	0.879995	0.190286	0.395276
	C185	C	0.131601	0.195202	0.612633
	C186	C	0.129602	0.826396	0.396872
	C187	C	0.878446	0.824227	0.615519
	C188	C	0.187012	0.399951	0.879730
	C189	C	0.187717	0.617757	0.130011
	C190	C	0.821164	0.399296	0.128654
	C191	C	0.818392	0.618015	0.877154
	C192	C	0.410316	0.099255	0.599985
	C193	C	0.600093	0.919071	0.600576
	C194	C	0.602100	0.100390	0.409394
	C195	C	0.410169	0.918925	0.410115
	C196	C	0.599314	0.413734	0.095018
	C197	C	0.597028	0.603912	0.913275
	C198	C	0.408898	0.605650	0.094021
	C199	C	0.409964	0.413090	0.914162
	C200	C	0.095432	0.604220	0.409222
	C201	C	0.914282	0.602772	0.599058
	C202	C	0.093981	0.414896	0.599881
	C203	C	0.912202	0.412745	0.409061
	C204	C	0.906450	0.600295	0.100853
	C205	C	0.099005	0.418281	0.099397
	C206	C	0.098457	0.599789	0.909963
	C207	C	0.908971	0.419682	0.909763
	C208	C	0.099239	0.914103	0.596755
	C209	C	0.100060	0.104854	0.414050
	C210	C	0.910588	0.103395	0.595994
	C211	C	0.909485	0.912478	0.415760
	C212	C	0.595501	0.103302	0.910939
	C213	C	0.413390	0.105588	0.102486
	C214	C	0.596312	0.914111	0.100074
	C215	C	0.414301	0.916141	0.910429
	Zn216	Zn	0.504653	0.008833	0.755531
	Zn217	Zn	0.505945	0.009900	0.255234
	Zn218	Zn	0.753103	0.509433	0.003867
	Zn219	Zn	0.254663	0.509191	0.004062
	Zn220	Zn	0.004889	0.758262	0.506410
	Zn221	Zn	0.003988	0.259243	0.504161
	Zn222	Zn	0.003804	0.509368	0.754683
	Zn223	Zn	0.004023	0.509028	0.254972
	Zn224	Zn	0.503661	0.760331	0.003599
	Zn225	Zn	0.504236	0.258332	0.005734
	Zn226	Zn	0.755230	0.008781	0.505679
	Zn227	Zn	0.254538	0.009359	0.505784
	N228	N	0.417304	0.973926	0.686216
	N229	N	0.592751	0.044422	0.686460
	N230	N	0.592884	0.974335	0.325012
	N231	N	0.418705	0.045197	0.325599
	N232	N	0.684738	0.420975	0.968931
	N233	N	0.682684	0.595762	0.039181
	N234	N	0.323046	0.597458	0.968356
	N235	N	0.324399	0.422580	0.040103
	N236	N	0.969211	0.689267	0.418285
	N237	N	0.039783	0.688822	0.593162
	N238	N	0.969124	0.326934	0.593443
	N239	N	0.039336	0.329451	0.417696
	N240	N	0.968002	0.421525	0.685649
	N241	N	0.039344	0.596346	0.685747
	N242	N	0.969266	0.596876	0.324417
	N243	N	0.038869	0.421860	0.324353
	N244	N	0.414518	0.692520	0.969039
	N245	N	0.590965	0.690658	0.038340
	N246	N	0.592832	0.326283	0.970361
	N247	N	0.417391	0.329043	0.040555
	N248	N	0.686319	0.974052	0.417978
	N249	N	0.685887	0.044613	0.592827
	N250	N	0.323376	0.974284	0.593431
	N251	N	0.323488	0.043861	0.417352
	N252	N	0.915041	0.474699	0.186340
	N253	N	0.090742	0.544109	0.184240
	N254	N	0.090899	0.474101	0.824518
	N255	N	0.915172	0.544295	0.823035
	N256	N	0.184742	0.922217	0.470885
	N257	N	0.186044	0.098161	0.539598
	N258	N	0.826444	0.093700	0.469399
	N259	N	0.823557	0.920476	0.541473
	N260	N	0.469333	0.188058	0.919400
	N261	N	0.539174	0.191237	0.094700
	N262	N	0.469597	0.829947	0.091911
	N263	N	0.539209	0.828873	0.916398
	N264	N	0.470374	0.922747	0.185625
	N265	N	0.540539	0.096918	0.185865
	N266	N	0.470339	0.097701	0.823836
	N267	N	0.540123	0.922476	0.824783
	N268	N	0.916756	0.189477	0.470212
	N269	N	0.093359	0.191995	0.538538
	N270	N	0.091938	0.828409	0.471235
	N271	N	0.916549	0.826741	0.541239
	N272	N	0.184762	0.474339	0.917072
	N273	N	0.185146	0.543748	0.091943
	N274	N	0.822881	0.473684	0.091313
	N275	N	0.821436	0.544075	0.915441
	O276	O	0.527013	0.297874	0.293295
	H277	H	0.508046	0.298341	0.307763
	H278	H	0.520284	0.269249	0.280748
	O279	O	0.406338	0.685150	0.618336
	H280	H	0.440043	0.688935	0.606758
	H281	H	0.404345	0.687433	0.619203
	O282	O	1.204500	1.211164	0.147504
	H283	H	1.188506	1.207983	0.123393
	H284	H	1.223548	1.218184	0.158883
	O285	O	0.821378	-0.060076	-0.057981
	H286	H	0.826381	-0.037558	-0.029618
	H287	H	0.828943	-0.043959	-0.091194
	O288	O	0.184881	0.015454	0.147085
	H289	H	0.199738	0.018953	0.164727
	H290	H	0.177519	0.019036	0.151704
	O291	O	1.180783	0.840280	-0.172187
	H292	H	1.170224	0.824147	-0.143332
	H293	H	1.147203	0.828931	-0.163005
	O294	O	-0.012541	0.919310	0.015570
	H295	H	-0.013415	0.923188	0.025606
	H296	H	-0.007407	0.920081	0.015370
	O297	O	0.456836	0.469351	0.502209
	H298	H	0.456476	0.469733	0.509340
	H299	H	0.440092	0.478862	0.500898
	O300	O	0.719874	0.294959	0.481107
	H301	H	0.746287	0.279397	0.484536
	H302	H	0.720355	0.316501	0.493654
	O303	O	0.319520	0.323785	0.692120
	H304	H	0.366629	0.322520	0.697583
	H305	H	0.312394	0.302622	0.689103
	O306	O	-0.022639	1.068072	0.860614
	H307	H	-0.035724	1.038042	0.859747
	H308	H	-0.000698	1.051762	0.868614
	O309	O	0.127552	0.088854	0.002328
	H310	H	0.146611	0.060716	0.005391
	H311	H	0.135802	0.088615	-0.016105
	O312	O	0.393502	0.365532	0.345737
	H313	H	0.389168	0.389671	0.349482
	H314	H	0.380607	0.355267	0.366064
	O315	O	0.189982	0.093768	0.920989
	H316	H	0.183796	0.099972	0.922241
	H317	H	0.180585	0.079439	0.933047
	O318	O	-0.017434	1.220919	-0.209635
	H319	H	-0.005336	1.238747	-0.225744
	H320	H	0.001573	1.197058	-0.229270
	O321	O	0.637615	0.668842	0.367447
	H322	H	0.625715	0.658724	0.371938
	H323	H	0.624499	0.650965	0.372412
	O324	O	0.686543	0.697836	0.636873
	H325	H	0.701028	0.675008	0.635545
	H326	H	0.685459	0.701904	0.613152
	O327	O	0.906176	0.162713	1.073443
	H328	H	0.894628	0.173596	1.060527
	H329	H	0.897081	0.151274	1.066768
	O330	O	1.084465	0.139760	0.221141
	H331	H	1.121840	0.127269	0.213189
	H332	H	1.082857	0.162096	0.243583
	O333	O	0.790569	0.794259	1.029397
	H334	H	0.780126	0.808618	1.017124
	H335	H	0.767251	0.789111	1.018524
	O336	O	0.932541	0.112113	1.119422
	H337	H	0.933663	0.115452	1.119213
	H338	H	0.936291	0.109152	1.106526
	O339	O	0.574145	0.462840	0.716699
	H340	H	0.545679	0.472877	0.718526
	H341	H	0.561295	0.447175	0.703468
	O342	O	0.302698	0.299187	0.524624
	H343	H	0.275734	0.292354	0.535774
	H344	H	0.291934	0.318184	0.535173
	O345	O	-0.020093	-0.213986	0.226411
	H346	H	-0.044581	-0.223890	0.234545
	H347	H	-0.050060	-0.228831	0.241081
	O348	O	1.217207	0.178969	1.003274
	H349	H	1.223217	0.173002	0.987010
	H350	H	1.212096	0.180021	1.011633
	O351	O	0.943525	0.785819	-0.059912
	H352	H	0.947648	0.785845	-0.032800
	H353	H	0.925520	0.792306	-0.055386
	O354	O	0.610450	0.359771	0.620116
	H355	H	0.629904	0.355236	0.606465
	H356	H	0.608750	0.384177	0.616831
	O357	O	0.957682	1.101819	1.123584
	H358	H	0.968451	1.103074	1.113998
	H359	H	0.964201	1.121221	1.117423
	O360	O	0.731083	0.445645	0.559982
	H361	H	0.724895	0.466117	0.583715
	H362	H	0.733181	0.458174	0.557967
	O363	O	0.432830	0.531580	0.682766
	H364	H	0.408802	0.529033	0.677907
	H365	H	0.418136	0.543331	0.683817
	O366	O	0.824768	0.184712	0.825209
	H367	H	0.876332	0.197182	0.812983
	H368	H	0.812056	0.176534	0.854838
	O369	O	0.512382	0.660789	0.464280
	H370	H	0.509390	0.648300	0.449877
	H371	H	0.513071	0.663301	0.457074
	O372	O	0.721281	0.484750	0.287804
	H373	H	0.737576	0.476763	0.271098
	H374	H	0.727086	0.453937	0.283139
	O375	O	0.078854	1.218404	0.947675
	H376	H	0.071634	1.198817	0.944390
	H377	H	0.081385	1.224146	0.944799
	O378	O	0.678460	0.708977	0.490468
	H379	H	0.679803	0.707211	0.482838
	H380	H	0.683995	0.712689	0.483115
	O381	O	0.795622	-0.018325	0.207576
	H382	H	0.787077	-0.015226	0.220918
	H383	H	0.810309	-0.013376	0.221848
	O384	O	-0.213630	0.030419	0.785751
	H385	H	-0.211943	0.061138	0.791253
	H386	H	-0.236096	0.028930	0.761244
	O387	O	-0.212525	1.220984	0.981732
	H388	H	-0.243169	1.247613	0.983573
	H389	H	-0.193337	1.214232	0.984269
	O390	O	0.210832	-0.202949	0.985049
	H391	H	0.217658	-0.221890	0.995688
	H392	H	0.213027	-0.198337	0.999456
	O393	O	0.818081	0.816952	0.192886
	H394	H	0.796638	0.829534	0.211944
	H395	H	0.805548	0.816178	0.148842
	O396	O	0.513810	0.316182	0.498657
	H397	H	0.511726	0.328310	0.494101
	H398	H	0.496916	0.317846	0.503866
	O399	O	0.228526	0.785152	0.231387
	H400	H	0.223984	0.794003	0.214024
	H401	H	0.212946	0.796917	0.214943
	O402	O	0.065563	-0.016071	1.221809
	H403	H	0.054048	-0.010661	1.228583
	H404	H	0.061786	-0.019311	1.218245
	O405	O	0.070540	-0.160483	0.047265
	H406	H	0.054884	-0.167216	0.065243
	H407	H	0.059976	-0.149167	0.048066
	O408	O	0.476944	0.721615	0.292364
	H409	H	0.475649	0.725212	0.280006
	H410	H	0.464011	0.728144	0.282375
	O411	O	0.321864	0.523638	0.463475
	H412	H	0.322765	0.538574	0.456513
	H413	H	0.322574	0.539837	0.471035
	O414	O	0.521666	0.717789	0.715420
	H415	H	0.538085	0.710751	0.716781
	H416	H	0.531412	0.727198	0.731552
	O417	O	0.649541	0.321174	0.340114
	H418	H	0.662225	0.309102	0.389078
	H419	H	0.611798	0.306601	0.332514
	O420	O	0.484914	0.533725	0.479872
	H421	H	0.483749	0.530064	0.491763
	H422	H	0.472748	0.529372	0.468464
	O423	O	-0.657799	0.686904	0.476760
	H424	H	-0.676583	0.708072	0.476051
	H425	H	-0.648672	0.691758	0.465012
	O426	O	0.949152	0.956753	0.787947
	H427	H	0.941427	0.956722	0.791301
	H428	H	0.936286	0.949658	0.787641
	O429	O	0.443283	0.514213	0.287487
	H430	H	0.439526	0.512790	0.278357
	H431	H	0.447017	0.523265	0.297560
	O432	O	0.831282	0.031722	1.084133
	H433	H	0.836544	0.026713	1.099861
	H434	H	0.822670	0.051894	1.084364
	O435	O	0.190836	-0.035267	0.080804
	H436	H	0.178177	-0.035012	0.067994
	H437	H	0.188538	-0.024021	0.082402
	O438	O	0.973710	0.216635	0.135923
	H439	H	0.981790	0.220327	0.149241
	H440	H	0.981060	0.227275	0.122146
	O441	O	0.698500	0.556756	0.450219
	H442	H	0.687417	0.540720	0.452207
	H443	H	0.703602	0.556764	0.434088
	O444	O	0.222340	0.991765	0.782732
	H445	H	0.259192	0.982450	0.747740
	H446	H	0.206907	0.942424	0.797645
	O447	O	0.492096	0.527522	0.285097
	H448	H	0.511014	0.506236	0.270639
	H449	H	0.488788	0.535795	0.287216
	O450	O	0.298659	0.657107	0.301413
	H451	H	0.288565	0.673963	0.275690
	H452	H	0.298296	0.666229	0.323517
	O453	O	0.480507	0.295810	0.719821
	H454	H	0.500152	0.288664	0.720376
	H455	H	0.497441	0.278947	0.712251
	O456	O	0.724956	-0.409647	-0.275261
	H457	H	0.705401	-0.425734	-0.262706
	H458	H	0.738178	-0.407177	-0.259368
	O459	O	0.289640	0.485950	0.722935
	H460	H	0.269128	0.469751	0.741113
	H461	H	0.285385	0.458125	0.719173
	O462	O	0.293321	0.599059	0.536288
	H463	H	0.305686	0.620430	0.545494
	H464	H	0.274664	0.610052	0.562883
	O465	O	1.023841	-0.199943	-0.206498
	H466	H	1.012843	-0.225648	-0.211875
	H467	H	1.003141	-0.198849	-0.195822
