data_Molecule from HDF5

_cell_length_a		16.496943
_cell_length_b		16.564368
_cell_length_c		16.474180
_cell_angle_alpha	89.919683
_cell_angle_beta	89.816951
_cell_angle_gamma	90.130035
_symmetry_space_group_name_H-M	'P 1'
_symmetry_Int_Tables_number		1

loop_
	_symmetry_equiv_pos_as_xyz
	x,y,z

loop_
	_atom_site_label
	_atom_site_type_symbol
	_atom_site_fract_x
	_atom_site_fract_y
	_atom_site_fract_z
	H0	H	0.379325	0.860595	0.718755
	H1	H	0.591435	0.173219	0.716222
	H2	H	0.590897	0.858564	0.275928
	H3	H	0.381264	0.170856	0.270072
	H4	H	0.709338	0.411864	0.839159
	H5	H	0.707677	0.622043	0.152434
	H6	H	0.266483	0.621941	0.836554
	H7	H	0.266654	0.415161	0.152536
	H8	H	0.832110	0.739623	0.388920
	H9	H	0.143357	0.744386	0.604151
	H10	H	0.830207	0.296995	0.598784
	H11	H	0.144984	0.296572	0.388094
	H12	H	0.829351	0.413343	0.714749
	H13	H	0.144780	0.624439	0.717776
	H14	H	0.831614	0.623586	0.273740
	H15	H	0.144974	0.413691	0.272897
	H16	H	0.380476	0.740588	0.838135
	H17	H	0.591319	0.737113	0.152814
	H18	H	0.592372	0.296187	0.838583
	H19	H	0.382334	0.297737	0.153509
	H20	H	0.707734	0.859012	0.391572
	H21	H	0.707133	0.174141	0.597549
	H22	H	0.260133	0.862744	0.604302
	H23	H	0.264572	0.172229	0.387336
	H24	H	0.885725	0.361180	0.214922
	H25	H	0.093962	0.674303	0.216177
	H26	H	0.090052	0.357948	0.774600
	H27	H	0.882685	0.673613	0.771799
	H28	H	0.211707	0.912656	0.338761
	H29	H	0.211876	0.127116	0.651472
	H30	H	0.771867	0.117844	0.335395
	H31	H	0.766705	0.912702	0.651568
	H32	H	0.329203	0.240205	0.887638
	H33	H	0.642868	0.238179	0.099305
	H34	H	0.329014	0.793194	0.102752
	H35	H	0.643689	0.795345	0.891128
	H36	H	0.329078	0.911046	0.217746
	H37	H	0.644450	0.118672	0.213887
	H38	H	0.328847	0.123077	0.772404
	H39	H	0.644362	0.914198	0.774909
	H40	H	0.887717	0.235344	0.336219
	H41	H	0.094671	0.241197	0.651600
	H42	H	0.099225	0.792679	0.339862
	H43	H	0.881573	0.794202	0.651023
	H44	H	0.207680	0.358966	0.890153
	H45	H	0.210850	0.673683	0.100290
	H46	H	0.768006	0.360711	0.098672
	H47	H	0.765773	0.673678	0.889977
	H48	H	0.392142	0.132311	0.588251
	H49	H	0.576013	0.905822	0.579461
	H50	H	0.582983	0.129163	0.409263
	H51	H	0.400859	0.907651	0.412775
	H52	H	0.576092	0.419882	0.111258
	H53	H	0.575899	0.606496	0.881305
	H54	H	0.403988	0.612880	0.107750
	H55	H	0.396266	0.423515	0.879569
	H56	H	0.101329	0.610744	0.408909
	H57	H	0.876435	0.603622	0.584594
	H58	H	0.100474	0.428601	0.584084
	H59	H	0.873087	0.427000	0.401935
	H60	H	0.100929	0.427785	0.583036
	H61	H	0.875682	0.608872	0.582694
	H62	H	0.098209	0.601170	0.410261
	H63	H	0.874479	0.424372	0.406378
	H64	H	0.388814	0.604096	0.109938
	H65	H	0.576829	0.602992	0.883547
	H66	H	0.580853	0.429315	0.110300
	H67	H	0.396276	0.431014	0.882861
	H68	H	0.581480	0.132236	0.398436
	H69	H	0.582849	0.901494	0.586954
	H70	H	0.409196	0.126717	0.588386
	H71	H	0.396600	0.903928	0.409230
	H72	H	0.901599	0.630989	0.087124
	H73	H	0.073800	0.406345	0.083378
	H74	H	0.076096	0.625490	0.914753
	H75	H	0.904483	0.406617	0.900436
	H76	H	0.068279	0.934645	0.603242
	H77	H	0.078573	0.101353	0.383448
	H78	H	0.900393	0.107193	0.607678
	H79	H	0.905132	0.930159	0.384340
	H80	H	0.595303	0.106190	0.911608
	H81	H	0.373625	0.101180	0.087084
	H82	H	0.600212	0.924043	0.084773
	H83	H	0.375232	0.930035	0.908538
	H84	H	0.598865	0.925460	0.082964
	H85	H	0.371569	0.109510	0.085064
	H86	H	0.597561	0.102910	0.903019
	H87	H	0.373923	0.927269	0.907477
	H88	H	0.897119	0.111400	0.610445
	H89	H	0.071603	0.108333	0.384654
	H90	H	0.071447	0.927985	0.607153
	H91	H	0.899365	0.922577	0.378647
	H92	H	0.084086	0.632247	0.901424
	H93	H	0.077177	0.406002	0.082358
	H94	H	0.896987	0.630116	0.078844
	H95	H	0.897349	0.407592	0.912868
	H96	H	0.399483	0.124816	0.573319
	H97	H	0.573020	0.903755	0.589349
	H98	H	0.573256	0.126559	0.404100
	H99	H	0.402539	0.905682	0.406399
	H100	H	0.571264	0.428340	0.107099
	H101	H	0.573127	0.604751	0.884131
	H102	H	0.402288	0.595724	0.102211
	H103	H	0.403038	0.426685	0.883179
	H104	H	0.101792	0.603856	0.401599
	H105	H	0.879048	0.605110	0.579402
	H106	H	0.100016	0.429061	0.582992
	H107	H	0.876056	0.429279	0.406453
	H108	H	0.892506	0.633600	0.086749
	H109	H	0.076268	0.405219	0.085372
	H110	H	0.068299	0.626356	0.899803
	H111	H	0.891104	0.401710	0.901523
	H112	H	0.076500	0.934751	0.606236
	H113	H	0.080472	0.111278	0.380173
	H114	H	0.894677	0.106065	0.609039
	H115	H	0.894910	0.932287	0.381657
	H116	H	0.600208	0.111779	0.905435
	H117	H	0.375117	0.104462	0.079063
	H118	H	0.598596	0.926537	0.086048
	H119	H	0.375549	0.927250	0.910381
	C120	C	0.365358	0.025427	0.617158
	C121	C	0.608793	1.007950	0.616483
	C122	C	0.610065	0.024985	0.373036
	C123	C	0.366913	1.008420	0.375229
	C124	C	0.608364	0.394819	0.005089
	C125	C	0.607307	0.637285	0.986902
	C126	C	0.365629	0.637668	0.002793
	C127	C	0.365852	0.395734	0.986198
	C128	C	-0.002893	0.638579	0.374027
	C129	C	0.980081	0.639420	0.616169
	C130	C	-0.003847	0.396392	0.615246
	C131	C	0.979232	0.396325	0.373281
	C132	C	0.866517	0.526941	0.115960
	C133	C	0.108390	0.509292	0.115554
	C134	C	0.108189	0.524411	0.873201
	C135	C	0.865605	0.508849	0.872794
	C136	C	0.107970	0.898036	0.503168
	C137	C	0.110120	0.140452	0.486350
	C138	C	0.867038	0.138385	0.503825
	C139	C	0.867089	0.896003	0.485407
	C140	C	0.493968	0.139039	0.873470
	C141	C	0.477851	0.136817	0.115736
	C142	C	0.495349	0.893382	0.117330
	C143	C	0.478561	0.896060	0.875555
	C144	C	0.361025	0.907749	0.678571
	C145	C	0.610185	0.126266	0.675936
	C146	C	0.610244	0.906165	0.314956
	C147	C	0.363318	0.124855	0.311844
	C148	C	0.668904	0.393263	0.886537
	C149	C	0.667530	0.640066	0.105381
	C150	C	0.305758	0.640792	0.884215
	C151	C	0.306143	0.395264	0.105320
	C152	C	0.879338	0.699501	0.370962
	C153	C	0.096957	0.702288	0.620954
	C154	C	0.877225	0.336872	0.617204
	C155	C	0.097720	0.336960	0.370513
	C156	C	0.876929	0.394873	0.674778
	C157	C	0.097748	0.642853	0.677556
	C158	C	0.879076	0.641654	0.313494
	C159	C	0.097756	0.394893	0.312838
	C160	C	0.362711	0.699416	0.884874
	C161	C	0.609541	0.697320	0.105497
	C162	C	0.610884	0.335652	0.886161
	C163	C	0.363731	0.337350	0.105816
	C164	C	0.668536	0.906387	0.372475
	C165	C	0.667957	0.126602	0.617325
	C166	C	0.301925	0.908920	0.621746
	C167	C	0.305466	0.125634	0.370116
	C168	C	0.866120	0.408245	0.175182
	C169	C	0.112003	0.627309	0.175797
	C170	C	0.109241	0.405600	0.813932
	C171	C	0.863591	0.626661	0.812259
	C172	C	0.171028	0.894335	0.385649
	C173	C	0.171313	0.144146	0.604291
	C174	C	0.810414	0.137897	0.383425
	C175	C	0.806887	0.894043	0.604585
	C176	C	0.376017	0.199352	0.870171
	C177	C	0.596153	0.197506	0.117972
	C178	C	0.376386	0.833683	0.120329
	C179	C	0.596928	0.836027	0.872631
	C180	C	0.376403	0.892077	0.177811
	C181	C	0.596822	0.138127	0.174584
	C182	C	0.376025	0.140885	0.812960
	C183	C	0.597216	0.894674	0.815125
	C184	C	0.868165	0.196040	0.383562
	C185	C	0.113048	0.201246	0.604369
	C186	C	0.115057	0.834718	0.386288
	C187	C	0.863782	0.835272	0.604042
	C188	C	0.167570	0.406033	0.871515
	C189	C	0.169748	0.627030	0.117626
	C190	C	0.807757	0.407981	0.117572
	C191	C	0.805446	0.626699	0.870561
	C192	C	0.392537	0.106874	0.590708
	C193	C	0.584182	0.925319	0.592214
	C194	C	0.586097	0.107882	0.397066
	C195	C	0.392716	0.926943	0.402110
	C196	C	0.583263	0.419039	0.087924
	C197	C	0.582324	0.611970	0.904490
	C198	C	0.391042	0.611616	0.085099
	C199	C	0.391195	0.420071	0.903259
	C200	C	0.079210	0.612742	0.399805
	C201	C	0.898275	0.613170	0.590035
	C202	C	0.078928	0.421154	0.590373
	C203	C	0.896259	0.420244	0.397989
	C204	C	0.890428	0.609986	0.091404
	C205	C	0.082933	0.427256	0.090817
	C206	C	0.083298	0.606446	0.898180
	C207	C	0.890349	0.426615	0.897899
	C208	C	0.080043	0.924859	0.584280
	C209	C	0.084393	0.114530	0.404210
	C210	C	0.890574	0.115007	0.587337
	C211	C	0.892625	0.921049	0.403106
	C212	C	0.576220	0.114028	0.899336
	C213	C	0.395122	0.112261	0.090725
	C214	C	0.577834	0.918124	0.091853
	C215	C	0.396410	0.921083	0.901389
	Zn216	Zn	0.486336	0.016578	0.745627
	Zn217	Zn	0.487067	0.015765	0.244948
	Zn218	Zn	0.736727	0.517675	-0.004616
	Zn219	Zn	0.237164	0.516913	-0.006143
	Zn220	Zn	-0.011231	0.767983	0.494400
	Zn221	Zn	-0.011756	0.267561	0.494619
	Zn222	Zn	-0.012092	0.516861	0.743967
	Zn223	Zn	-0.012003	0.518306	0.245138
	Zn224	Zn	0.486687	0.765645	-0.004730
	Zn225	Zn	0.485611	0.266652	-0.004587
	Zn226	Zn	0.738407	0.016955	0.494711
	Zn227	Zn	0.237120	0.017964	0.495427
	N228	N	0.399687	0.981284	0.675830
	N229	N	0.574393	0.051353	0.675728
	N230	N	0.574899	0.980996	0.314826
	N231	N	0.400799	0.051074	0.315029
	N232	N	0.667586	0.429397	0.961486
	N233	N	0.666132	0.603242	0.030785
	N234	N	0.307382	0.603247	0.958541
	N235	N	0.307404	0.430926	0.030002
	N236	N	0.953934	0.697803	0.407644
	N237	N	0.022847	0.700129	0.583570
	N238	N	0.952496	0.337363	0.581197
	N239	N	0.022912	0.337533	0.407349
	N240	N	0.951738	0.431283	0.673415
	N241	N	0.023911	0.604462	0.674775
	N242	N	0.953573	0.604790	0.314940
	N243	N	0.023025	0.431280	0.314590
	N244	N	0.398758	0.697732	0.959874
	N245	N	0.572774	0.695736	0.030972
	N246	N	0.573947	0.336367	0.960940
	N247	N	0.399880	0.337416	0.030593
	N248	N	0.668659	0.981613	0.407672
	N249	N	0.667296	0.052014	0.581114
	N250	N	0.304413	0.983121	0.584492
	N251	N	0.307952	0.052295	0.408955
	N252	N	0.901442	0.483383	0.174488
	N253	N	0.074518	0.553406	0.174497
	N254	N	0.073343	0.480383	0.814607
	N255	N	0.900145	0.552245	0.813253
	N256	N	0.166620	0.933019	0.459316
	N257	N	0.169691	0.107180	0.529612
	N258	N	0.809363	0.103063	0.459170
	N259	N	0.808760	0.931237	0.530036
	N260	N	0.450564	0.198278	0.907179
	N261	N	0.521096	0.196778	0.082046
	N262	N	0.451278	0.834204	0.083651
	N263	N	0.522221	0.836771	0.909319
	N264	N	0.451456	0.928234	0.176280
	N265	N	0.522310	0.101241	0.173252
	N266	N	0.450590	0.104179	0.814782
	N267	N	0.522633	0.931239	0.816888
	N268	N	0.902521	0.196630	0.459440
	N269	N	0.075850	0.199044	0.530000
	N270	N	0.076639	0.836876	0.460407
	N271	N	0.900423	0.836309	0.529220
	N272	N	0.167292	0.480964	0.907202
	N273	N	0.167845	0.552624	0.080873
	N274	N	0.807675	0.482904	0.081731
	N275	N	0.806549	0.552307	0.907222
	O276	O	0.789102	0.834345	0.022260
	H277	H	0.790829	0.843557	0.016744
	H278	H	0.801898	0.829329	0.012172
	O279	O	0.060792	-0.200485	1.063392
	H280	H	0.065813	-0.195966	1.082470
	H281	H	0.076838	-0.199166	1.059759
	O282	O	0.360300	0.371510	0.299630
	H283	H	0.381647	0.389761	0.308988
	H284	H	0.367725	0.388681	0.309537
	O285	O	0.033564	0.011815	0.974960
	H286	H	0.044330	0.010507	0.979906
	H287	H	0.042076	0.004452	0.982292
	O288	O	0.784730	-0.024259	1.205419
	H289	H	0.767829	-0.020432	1.211243
	H290	H	0.772392	-0.047708	1.205761
	O291	O	0.647049	0.376772	0.550131
	H292	H	0.647848	0.381995	0.547140
	H293	H	0.636388	0.376684	0.552365
	O294	O	-0.042407	0.159404	-0.153598
	H295	H	-0.059291	0.175255	-0.171009
	H296	H	-0.061810	0.169604	-0.147381
	O297	O	1.190318	0.090961	0.200163
	H298	H	1.196040	0.068688	0.186036
	H299	H	1.199710	0.081454	0.213916
	O300	O	0.152350	0.091473	-0.132570
	H301	H	0.153380	0.105524	-0.142886
	H302	H	0.153484	0.102645	-0.138444
	O303	O	-0.197926	-0.167996	-0.192742
	H304	H	-0.198056	-0.158562	-0.189614
	H305	H	-0.178988	-0.163369	-0.164940
	O306	O	0.927385	-0.036741	-0.224671
	H307	H	0.913847	-0.025097	-0.226326
	H308	H	0.925351	-0.022898	-0.216968
	O309	O	0.537830	0.606789	0.291189
	H310	H	0.545214	0.601478	0.281548
	H311	H	0.543407	0.630277	0.287946
	O312	O	0.005636	0.223014	0.196410
	H313	H	0.017455	0.218391	0.189406
	H314	H	0.019692	0.223242	0.210126
	O315	O	0.440085	0.564140	0.687072
	H316	H	0.437144	0.569227	0.676097
	H317	H	0.411533	0.560684	0.690561
	O318	O	1.208605	0.795735	-0.030484
	H319	H	1.234749	0.770737	-0.044802
	H320	H	1.204511	0.799923	-0.040482
	O321	O	-0.302518	0.719580	0.543595
	H322	H	-0.292654	0.729662	0.530376
	H323	H	-0.306239	0.708584	0.520863
	O324	O	0.773144	0.071164	1.069844
	H325	H	0.783346	0.063635	1.068161
	H326	H	0.770739	0.071185	1.066495
	O327	O	0.700559	0.582682	0.419528
	H328	H	0.703862	0.556008	0.429485
	H329	H	0.705246	0.561528	0.402436
	O330	O	0.294480	0.707830	0.302089
	H331	H	0.274488	0.684675	0.287248
	H332	H	0.284916	0.715731	0.355148
	O333	O	0.513443	0.304168	0.288307
	H334	H	0.528368	0.309514	0.273797
	H335	H	0.513033	0.297513	0.286417
	O336	O	0.782186	0.048195	0.790346
	H337	H	0.787077	0.063314	0.797932
	H338	H	0.756296	0.061643	0.773721
	O339	O	0.462077	0.306004	0.704784
	H340	H	0.461983	0.302185	0.711579
	H341	H	0.478509	0.312905	0.708408
	O342	O	-0.053952	1.139591	-0.003565
	H343	H	-0.038292	1.131460	-0.001921
	H344	H	-0.044904	1.146931	-0.003715
	O345	O	0.301031	0.332564	0.681522
	H346	H	0.300336	0.320871	0.640491
	H347	H	0.336103	0.327320	0.689639
	O348	O	0.651945	0.748003	0.318700
	H349	H	0.663140	0.736567	0.309034
	H350	H	0.636980	0.738807	0.313000
	O351	O	-0.056914	-0.204822	0.936857
	H352	H	-0.038466	-0.208534	0.939769
	H353	H	-0.044017	-0.203115	0.944147
	O354	O	0.943685	0.049482	0.979198
	H355	H	0.947012	0.050421	0.983666
	H356	H	0.948825	0.059779	0.968087
	O357	O	0.551672	0.467634	0.715705
	H358	H	0.541793	0.488198	0.720818
	H359	H	0.574886	0.484454	0.717509
	O360	O	0.613709	0.501418	0.513454
	H361	H	0.611069	0.497441	0.513971
	H362	H	0.608673	0.506541	0.528797
	O363	O	0.461992	0.738116	0.281441
	H364	H	0.445888	0.757821	0.258029
	H365	H	0.425384	0.739816	0.277037
	O366	O	1.099551	0.116349	0.973140
	H367	H	1.116345	0.129171	0.976828
	H368	H	1.088791	0.098636	0.968380
	O369	O	0.166671	-0.118794	0.843970
	H370	H	0.150165	-0.108616	0.835984
	H371	H	0.166553	-0.121181	0.857097
	O372	O	0.190262	1.193381	1.020664
	H373	H	0.198095	1.212556	1.031158
	H374	H	0.190899	1.188674	1.047564
	O375	O	0.803002	0.205662	0.180077
	H376	H	0.827881	0.198443	0.175324
	H377	H	0.814197	0.197748	0.155779
	O378	O	1.200205	-0.008039	0.785351
	H379	H	1.186145	-0.014585	0.781646
	H380	H	1.210244	-0.002984	0.755858
	O381	O	-0.243274	0.995655	-0.059144
	H382	H	-0.237193	1.001666	-0.058121
	H383	H	-0.250231	0.998075	-0.063188
	O384	O	0.265904	0.487011	-0.284595
	H385	H	0.259928	0.454108	-0.281253
	H386	H	0.249064	0.464291	-0.264548
	O387	O	0.130714	0.926568	1.052967
	H388	H	0.127981	0.918055	1.050551
	H389	H	0.139780	0.948951	1.027779
	O390	O	-0.049998	1.063743	1.177883
	H391	H	-0.044566	1.054417	1.169456
	H392	H	-0.070062	1.058797	1.182100
	O393	O	0.787541	0.218208	-0.210037
	H394	H	0.778457	0.213947	-0.179579
	H395	H	0.762092	0.242899	-0.232793
	O396	O	0.262500	0.748256	0.718659
	H397	H	0.267936	0.781846	0.719436
	H398	H	0.255224	0.741272	0.707795
	O399	O	0.479597	0.373236	0.540003
	H400	H	0.469386	0.390508	0.527644
	H401	H	0.475835	0.376013	0.548313
	O402	O	1.671033	0.331644	0.685041
	H403	H	1.650391	0.341143	0.661772
	H404	H	1.652940	0.355881	0.679156
	O405	O	0.687323	0.722246	0.706036
	H406	H	0.667227	0.729866	0.678681
	H407	H	0.711715	0.743936	0.710153
	O408	O	1.020298	1.231703	0.950466
	H409	H	1.019251	1.228798	0.943478
	H410	H	1.022789	1.239175	0.953134
	O411	O	0.277319	0.529147	0.311454
	H412	H	0.280268	0.524655	0.299193
	H413	H	0.278771	0.531239	0.322779
	O414	O	-0.163971	-0.177878	0.198577
	H415	H	-0.184395	-0.182275	0.201036
	H416	H	-0.164640	-0.170925	0.186223
	O417	O	0.429219	0.290368	0.432261
	H418	H	0.430675	0.296643	0.422635
	H419	H	0.427593	0.288402	0.433159
	O420	O	0.783822	0.232066	0.970940
	H421	H	0.780763	0.234559	0.978584
	H422	H	0.781024	0.244153	0.972862
	O423	O	1.467901	0.502934	0.288212
	H424	H	1.467756	0.503335	0.294423
	H425	H	1.482110	0.528283	0.275625
	O426	O	0.473618	0.722829	0.664561
	H427	H	0.494276	0.732538	0.679233
	H428	H	0.483589	0.715940	0.666378
	O429	O	0.497424	0.509116	0.463097
	H430	H	0.500226	0.505873	0.464469
	H431	H	0.489740	0.519098	0.457742
	O432	O	1.706911	0.296800	0.455167
	H433	H	1.712597	0.276789	0.463814
	H434	H	1.710759	0.299799	0.461685
	O435	O	0.553336	0.663660	0.445241
	H436	H	0.540790	0.665662	0.436440
	H437	H	0.558288	0.665006	0.447177
	O438	O	0.276650	0.302646	0.518097
	H439	H	0.276205	0.307838	0.508382
	H440	H	0.261943	0.277434	0.510377
	O441	O	0.305390	0.542427	0.559267
	H442	H	0.300711	0.531692	0.574309
	H443	H	0.310529	0.551835	0.580174
	O444	O	0.712309	0.483886	0.273252
	H445	H	0.718084	0.450250	0.267947
	H446	H	0.728706	0.467344	0.250595
	O447	O	1.140404	0.172208	1.133263
	H448	H	1.143934	0.127742	1.139273
	H449	H	1.141105	0.181782	1.148012
	O450	O	1.420865	0.635198	0.479338
	H451	H	1.427869	0.643742	0.481924
	H452	H	1.433991	0.638044	0.483213
	O453	O	0.091752	0.122305	-0.175528
	H454	H	0.077843	0.122671	-0.161765
	H455	H	0.084320	0.142253	-0.176125
	O456	O	0.116847	0.950253	1.202599
	H457	H	0.107312	0.934024	1.213846
	H458	H	0.113515	0.951930	1.187184
	O459	O	0.280641	0.724743	0.467130
	H460	H	0.272562	0.717504	0.486709
	H461	H	0.282664	0.731114	0.487308
	O462	O	0.696447	0.544334	0.706852
	H463	H	0.707793	0.569364	0.711287
	H464	H	0.710734	0.572330	0.714049
	O465	O	0.692514	0.312647	0.287609
	H466	H	0.688065	0.309320	0.326572
	H467	H	0.705504	0.285376	0.261204
	O468	O	0.514718	0.679161	0.573545
	H469	H	0.492262	0.662169	0.566564
	H470	H	0.505527	0.698445	0.564810
	O471	O	1.016840	0.811188	-0.211665
	H472	H	0.997539	0.819540	-0.220084
	H473	H	1.006103	0.811264	-0.223885
	O474	O	1.997790	0.881747	1.208608
	H475	H	1.977605	0.883017	1.201847
	H476	H	1.979888	0.886190	1.219864
	O477	O	0.281313	0.479599	0.471097
	H478	H	0.280868	0.474283	0.480718
	H479	H	0.277654	0.488393	0.485744
