data_Molecule from HDF5

_cell_length_a		16.273951
_cell_length_b		16.358264
_cell_length_c		15.999006
_cell_angle_alpha	90.374458
_cell_angle_beta	90.834428
_cell_angle_gamma	90.086843
_symmetry_space_group_name_H-M	'P 1'
_symmetry_Int_Tables_number		1

loop_
	_symmetry_equiv_pos_as_xyz
	x,y,z

loop_
	_atom_site_label
	_atom_site_type_symbol
	_atom_site_fract_x
	_atom_site_fract_y
	_atom_site_fract_z
	H0	H	0.398149	0.842178	0.697869
	H1	H	0.592638	0.169480	0.708592
	H2	H	0.586477	0.843584	0.276019
	H3	H	0.393914	0.171483	0.276827
	H4	H	0.697246	0.406013	0.822851
	H5	H	0.704701	0.608516	0.154115
	H6	H	0.272733	0.602640	0.823411
	H7	H	0.275075	0.406084	0.154864
	H8	H	0.828998	0.725126	0.384802
	H9	H	0.153229	0.724049	0.596011
	H10	H	0.829117	0.287582	0.592536
	H11	H	0.152840	0.289741	0.388160
	H12	H	0.822782	0.413212	0.695574
	H13	H	0.151678	0.606449	0.708767
	H14	H	0.826457	0.606141	0.274525
	H15	H	0.153598	0.411074	0.277983
	H16	H	0.383668	0.719615	0.824106
	H17	H	0.590513	0.722828	0.154340
	H18	H	0.586611	0.289623	0.825215
	H19	H	0.389290	0.291964	0.155702
	H20	H	0.707756	0.845198	0.387518
	H21	H	0.712623	0.168291	0.595566
	H22	H	0.275730	0.844727	0.587881
	H23	H	0.271447	0.168799	0.385429
	H24	H	0.890713	0.345222	0.202357
	H25	H	0.088426	0.671291	0.205021
	H26	H	0.079096	0.343712	0.777303
	H27	H	0.888804	0.672446	0.775812
	H28	H	0.199570	0.908753	0.322268
	H29	H	0.208516	0.107749	0.655451
	H30	H	0.774058	0.106220	0.324875
	H31	H	0.779833	0.907612	0.654548
	H32	H	0.327047	0.221890	0.885715
	H33	H	0.651361	0.227106	0.098148
	H34	H	0.326161	0.790607	0.089644
	H35	H	0.649772	0.785494	0.887330
	H36	H	0.325141	0.911915	0.199926
	H37	H	0.655156	0.103833	0.204267
	H38	H	0.327398	0.102135	0.773008
	H39	H	0.655727	0.908445	0.780837
	H40	H	0.885994	0.223288	0.325313
	H41	H	0.094050	0.223244	0.655952
	H42	H	0.090840	0.790348	0.325055
	H43	H	0.894010	0.794022	0.654870
	H44	H	0.201905	0.344693	0.887169
	H45	H	0.209473	0.668408	0.094376
	H46	H	0.771692	0.345403	0.089160
	H47	H	0.767521	0.669470	0.886966
	H48	H	0.394879	0.122444	0.575649
	H49	H	0.595965	0.887597	0.586737
	H50	H	0.586100	0.124604	0.398145
	H51	H	0.391330	0.890131	0.395485
	H52	H	0.572451	0.417259	0.104662
	H53	H	0.576295	0.591645	0.871695
	H54	H	0.404134	0.597122	0.105366
	H55	H	0.404894	0.413117	0.874090
	H56	H	0.111175	0.607221	0.393580
	H57	H	0.870402	0.604946	0.585146
	H58	H	0.104839	0.416223	0.579904
	H59	H	0.874359	0.406522	0.407237
	H60	H	0.105512	0.418636	0.585090
	H61	H	0.872372	0.609917	0.573921
	H62	H	0.105123	0.604686	0.409894
	H63	H	0.877244	0.425228	0.398832
	H64	H	0.399034	0.605689	0.110177
	H65	H	0.571282	0.597373	0.872333
	H66	H	0.584040	0.409525	0.111379
	H67	H	0.390398	0.404147	0.867284
	H68	H	0.581032	0.122122	0.399393
	H69	H	0.580099	0.891505	0.586953
	H70	H	0.399223	0.124599	0.586727
	H71	H	0.394189	0.889889	0.391119
	H72	H	0.894347	0.625141	0.085320
	H73	H	0.079255	0.391496	0.082823
	H74	H	0.073220	0.619659	0.905793
	H75	H	0.876308	0.388223	0.897684
	H76	H	0.086827	0.923956	0.606495
	H77	H	0.080317	0.114290	0.366509
	H78	H	0.911478	0.100008	0.605962
	H79	H	0.900083	0.918499	0.373179
	H80	H	0.604456	0.094927	0.905318
	H81	H	0.372163	0.105630	0.080117
	H82	H	0.603694	0.914454	0.075852
	H83	H	0.372070	0.911982	0.892262
	H84	H	0.606009	0.916918	0.084044
	H85	H	0.375424	0.097840	0.076723
	H86	H	0.608313	0.100199	0.896089
	H87	H	0.372285	0.910482	0.893728
	H88	H	0.900679	0.104980	0.611268
	H89	H	0.093971	0.091302	0.370160
	H90	H	0.078072	0.912060	0.607618
	H91	H	0.903010	0.912171	0.370885
	H92	H	0.089000	0.623827	0.905067
	H93	H	0.083156	0.392216	0.078913
	H94	H	0.900086	0.621681	0.079248
	H95	H	0.893883	0.388345	0.877555
	H96	H	0.405422	0.120693	0.578895
	H97	H	0.588434	0.893679	0.573490
	H98	H	0.584325	0.121783	0.403606
	H99	H	0.396805	0.892306	0.395690
	H100	H	0.586180	0.423615	0.107277
	H101	H	0.578125	0.598084	0.869390
	H102	H	0.393786	0.596214	0.109319
	H103	H	0.389065	0.421197	0.872574
	H104	H	0.104915	0.591400	0.398385
	H105	H	0.874842	0.596818	0.576536
	H106	H	0.107321	0.413675	0.584514
	H107	H	0.869131	0.409409	0.386976
	H108	H	0.891791	0.623790	0.076933
	H109	H	0.084276	0.390710	0.084246
	H110	H	0.078955	0.625578	0.891003
	H111	H	0.900862	0.397590	0.902597
	H112	H	0.092286	0.911172	0.612256
	H113	H	0.068110	0.093089	0.377374
	H114	H	0.900189	0.092600	0.606966
	H115	H	0.895166	0.915145	0.369376
	H116	H	0.607594	0.105599	0.906616
	H117	H	0.372625	0.097993	0.085337
	H118	H	0.606863	0.908347	0.082075
	H119	H	0.372908	0.912436	0.893848
	C120	C	0.371603	0.015061	0.608583
	C121	C	0.616962	0.997972	0.613714
	C122	C	0.611934	0.015197	0.370158
	C123	C	0.366177	0.998381	0.365163
	C124	C	0.608955	0.386041	-0.001381
	C125	C	0.607425	0.627233	0.980078
	C126	C	0.367488	0.627294	-0.001352
	C127	C	0.366963	0.384305	0.980964
	C128	C	-0.000695	0.630144	0.368907
	C129	C	0.980584	0.631742	0.611373
	C130	C	-0.002303	0.387398	0.610564
	C131	C	0.981358	0.385100	0.368449
	C132	C	0.866519	0.516200	0.109913
	C133	C	0.112252	0.498723	0.112554
	C134	C	0.108215	0.515680	0.869622
	C135	C	0.862403	0.499261	0.864724
	C136	C	0.112719	0.886274	0.498603
	C137	C	0.112256	0.128969	0.481044
	C138	C	0.871717	0.128226	0.499106
	C139	C	0.871399	0.886711	0.480374
	C140	C	0.498946	0.127955	0.870043
	C141	C	0.481383	0.129688	0.112405
	C142	C	0.497518	0.885312	0.109593
	C143	C	0.480691	0.882900	0.866378
	C144	C	0.376098	0.891504	0.661695
	C145	C	0.613994	0.120444	0.670752
	C146	C	0.608376	0.892663	0.313440
	C147	C	0.371312	0.121970	0.312424
	C148	C	0.661728	0.386222	0.873230
	C149	C	0.665812	0.627819	0.104721
	C150	C	0.310471	0.623450	0.873453
	C151	C	0.312728	0.386402	0.105576
	C152	C	0.877312	0.686626	0.366865
	C153	C	0.103939	0.686232	0.614116
	C154	C	0.876378	0.328595	0.609831
	C155	C	0.104162	0.329186	0.369388
	C156	C	0.872986	0.391453	0.661109
	C157	C	0.103222	0.627534	0.669938
	C158	C	0.875983	0.627330	0.311749
	C159	C	0.104496	0.389157	0.314214
	C160	C	0.365636	0.681682	0.873738
	C161	C	0.608955	0.684685	0.104750
	C162	C	0.606445	0.328059	0.874435
	C163	C	0.369354	0.329381	0.105742
	C164	C	0.668404	0.893437	0.369149
	C165	C	0.673536	0.120033	0.614604
	C166	C	0.315254	0.892776	0.606858
	C167	C	0.310314	0.120523	0.366478
	C168	C	0.869659	0.393759	0.164911
	C169	C	0.109642	0.621883	0.167995
	C170	C	0.102379	0.392783	0.813850
	C171	C	0.866752	0.622810	0.811665
	C172	C	0.164302	0.888257	0.372859
	C173	C	0.169874	0.127675	0.605852
	C174	C	0.812804	0.126451	0.374425
	C175	C	0.817162	0.888235	0.605308
	C176	C	0.375956	0.183262	0.867792
	C177	C	0.603291	0.187342	0.115082
	C178	C	0.374915	0.829686	0.108621
	C179	C	0.602351	0.825396	0.868588
	C180	C	0.374580	0.889973	0.163718
	C181	C	0.605183	0.126228	0.168194
	C182	C	0.376076	0.123736	0.811659
	C183	C	0.605412	0.886632	0.815567
	C184	C	0.868649	0.184603	0.374603
	C185	C	0.113209	0.185318	0.605996
	C186	C	0.110233	0.829227	0.374325
	C187	C	0.873844	0.831800	0.605291
	C188	C	0.163063	0.393053	0.868819
	C189	C	0.169850	0.620404	0.112839
	C190	C	0.810380	0.394049	0.108506
	C191	C	0.806515	0.621413	0.866956
	C192	C	0.393457	0.100352	0.586829
	C193	C	0.594734	0.912837	0.589434
	C194	C	0.590178	0.100746	0.393658
	C195	C	0.387677	0.912886	0.387418
	C196	C	0.587473	0.409837	0.085417
	C197	C	0.582492	0.602885	0.893691
	C198	C	0.391888	0.605953	0.085847
	C199	C	0.388374	0.406219	0.893915
	C200	C	0.084957	0.607654	0.393498
	C201	C	0.894736	0.610319	0.585650
	C202	C	0.083659	0.409702	0.589368
	C203	C	0.895776	0.407237	0.391017
	C204	C	0.888807	0.601469	0.087076
	C205	C	0.088963	0.413581	0.088983
	C206	C	0.086796	0.600848	0.893655
	C207	C	0.883884	0.413644	0.886307
	C208	C	0.091857	0.909117	0.586070
	C209	C	0.087904	0.106343	0.393778
	C210	C	0.896733	0.105813	0.585566
	C211	C	0.892858	0.908813	0.393772
	C212	C	0.584570	0.106511	0.895449
	C213	C	0.395656	0.107127	0.087796
	C214	C	0.583443	0.906837	0.087156
	C215	C	0.394724	0.905223	0.887019
	Zn216	Zn	0.492524	0.006094	0.740046
	Zn217	Zn	0.490600	0.007747	0.239621
	Zn218	Zn	0.735840	0.507146	-0.011493
	Zn219	Zn	0.240211	0.505884	-0.010209
	Zn220	Zn	-0.008571	0.759246	0.489591
	Zn221	Zn	-0.008772	0.256965	0.490725
	Zn222	Zn	-0.013229	0.509132	0.738194
	Zn223	Zn	-0.010530	0.507757	0.240298
	Zn224	Zn	0.487209	0.755231	-0.011333
	Zn225	Zn	0.489091	0.257871	-0.008569
	Zn226	Zn	0.744076	0.006974	0.490027
	Zn227	Zn	0.239636	0.007028	0.488682
	N228	N	0.410426	0.968397	0.663176
	N229	N	0.579766	0.043528	0.670530
	N230	N	0.573941	0.969386	0.314086
	N231	N	0.405225	0.044958	0.311309
	N232	N	0.663383	0.421809	0.951419
	N233	N	0.665002	0.592665	0.026334
	N234	N	0.311542	0.590138	0.952142
	N235	N	0.310851	0.419579	0.026975
	N236	N	0.955099	0.688313	0.401721
	N237	N	0.026486	0.689101	0.578610
	N238	N	0.954944	0.325942	0.579213
	N239	N	0.026565	0.326341	0.402122
	N240	N	0.949562	0.427391	0.661785
	N241	N	0.025434	0.594718	0.668564
	N242	N	0.952973	0.592896	0.312799
	N243	N	0.027115	0.423117	0.313390
	N244	N	0.400222	0.684516	0.952615
	N245	N	0.573488	0.684535	0.026172
	N246	N	0.574186	0.327965	0.953419
	N247	N	0.402495	0.327985	0.027298
	N248	N	0.670977	0.970822	0.403342
	N249	N	0.675529	0.042954	0.579807
	N250	N	0.312363	0.970507	0.574502
	N251	N	0.306910	0.042692	0.398441
	N252	N	0.903857	0.470815	0.166279
	N253	N	0.074683	0.545100	0.168208
	N254	N	0.068951	0.470005	0.814013
	N255	N	0.900607	0.545854	0.810013
	N256	N	0.165941	0.923114	0.451257
	N257	N	0.169533	0.093527	0.527008
	N258	N	0.814294	0.092358	0.452626
	N259	N	0.815567	0.922022	0.526745
	N260	N	0.453380	0.186050	0.903372
	N261	N	0.525119	0.189873	0.081210
	N262	N	0.452461	0.826624	0.075718
	N263	N	0.523735	0.822850	0.899279
	N264	N	0.451852	0.924098	0.164342
	N265	N	0.528193	0.091367	0.166833
	N266	N	0.453543	0.090266	0.812810
	N267	N	0.528771	0.921782	0.813996
	N268	N	0.904589	0.185946	0.453029
	N269	N	0.078002	0.186196	0.527287
	N270	N	0.078576	0.827943	0.453625
	N271	N	0.906612	0.830594	0.526780
	N272	N	0.166711	0.470289	0.902978
	N273	N	0.171909	0.542747	0.079311
	N274	N	0.808188	0.471385	0.075365
	N275	N	0.803619	0.543588	0.899193
	O276	O	1.006802	-0.015671	0.966440
	H277	H	1.010025	-0.027244	0.969819
	H278	H	1.003048	-0.011092	0.956579
	O279	O	0.942288	1.050825	-0.025527
	H280	H	0.936441	1.046632	-0.024847
	H281	H	0.943208	1.067415	-0.036492
	O282	O	0.508239	0.533871	0.348864
	H283	H	0.517147	0.522009	0.335680
	H284	H	0.507218	0.522664	0.353890
	O285	O	0.373475	0.462963	0.584925
	H286	H	0.361934	0.457443	0.578787
	H287	H	0.383497	0.456671	0.591168
	O288	O	0.428162	0.390731	0.501303
	H289	H	0.434291	0.384761	0.508640
	H290	H	0.434031	0.400968	0.500961
	O291	O	0.583689	-0.485578	1.407962
	H292	H	0.578770	-0.497265	1.404451
	H293	H	0.595988	-0.485666	1.405437
	O294	O	1.042559	1.040249	-0.099681
	H295	H	1.041609	1.054997	-0.087515
	H296	H	1.060549	1.059445	-0.078783
	O297	O	0.889561	0.929501	0.041826
	H298	H	0.897872	0.925379	0.042043
	H299	H	0.890043	0.937981	0.040045
	O300	O	0.488562	0.342156	0.396031
	H301	H	0.484651	0.325787	0.398210
	H302	H	0.486090	0.342598	0.395673
	O303	O	0.529867	0.457798	0.478882
	H304	H	0.537683	0.454180	0.471340
	H305	H	0.525455	0.449961	0.479968
	O306	O	0.588849	0.659469	0.650931
	H307	H	0.590223	0.675471	0.653395
	H308	H	0.585580	0.663826	0.648825
	O309	O	0.546807	0.513297	0.514855
	H310	H	0.538361	0.516396	0.520412
	H311	H	0.550496	0.525153	0.510946
	O312	O	1.048624	1.028996	1.073177
	H313	H	1.042884	1.031867	1.065011
	H314	H	1.051165	1.026153	1.084754
	O315	O	0.983925	0.912995	-0.109607
	H316	H	0.982409	0.915389	-0.112498
	H317	H	0.975514	0.907850	-0.120280
	O318	O	-0.128862	0.002633	0.946289
	H319	H	-0.124629	-0.002109	0.961298
	H320	H	-0.129856	0.010789	0.930363
	O321	O	0.472074	0.543684	0.514540
	H322	H	0.464999	0.556665	0.507784
	H323	H	0.477658	0.546027	0.514689
	O324	O	0.054412	0.970313	0.923977
	H325	H	0.056951	0.970915	0.921776
	H326	H	0.060635	0.961243	0.928458
	O327	O	0.094193	1.113522	1.062170
	H328	H	0.102470	1.118271	1.073678
	H329	H	0.105021	1.119190	1.069165
	O330	O	0.014507	0.035355	0.068451
	H331	H	-0.000416	0.024810	0.060654
	H332	H	0.014541	0.020816	0.072800
	O333	O	0.463328	0.519435	0.461726
	H334	H	0.458292	0.531198	0.466120
	H335	H	0.457112	0.522289	0.458176
	O336	O	0.042788	0.127020	0.015730
	H337	H	0.044556	0.122716	0.030933
	H338	H	0.044752	0.114583	0.014188
	O339	O	-0.049923	-0.074486	-0.032818
	H340	H	-0.053453	-0.075778	-0.042301
	H341	H	-0.051128	-0.075779	-0.036092
	O342	O	0.445246	0.468118	0.542350
	H343	H	0.465272	0.470864	0.554346
	H344	H	0.439338	0.469520	0.544508
	O345	O	0.148990	1.025693	0.944829
	H346	H	0.160684	1.018425	0.962689
	H347	H	0.135486	1.019283	0.942228
	O348	O	-0.169097	0.050749	0.984693
	H349	H	-0.159045	0.045846	0.982955
	H350	H	-0.184000	0.057912	0.968730
	O351	O	0.507805	0.447364	0.514327
	H352	H	0.504953	0.451126	0.517597
	H353	H	0.514162	0.444797	0.509411
	O354	O	0.100772	1.060706	0.070373
	H355	H	0.095449	1.062764	0.074695
	H356	H	0.101913	1.061834	0.064516
	O357	O	0.381420	0.518393	0.475341
	H358	H	0.366011	0.512444	0.474882
	H359	H	0.373908	0.531415	0.468653
	O360	O	1.465022	-0.400759	1.501204
	H361	H	1.467483	-0.395371	1.496177
	H362	H	1.472809	-0.403514	1.497759
	O363	O	0.534213	0.534883	0.578526
	H364	H	0.535437	0.543508	0.581679
	H365	H	0.532790	0.528493	0.579775
	O366	O	0.499323	0.539942	0.506831
	H367	H	0.500291	0.529107	0.507177
	H368	H	0.497364	0.552881	0.513207
	O369	O	0.939664	-0.052350	0.080547
	H370	H	0.939916	-0.048001	0.091258
	H371	H	0.936140	-0.055391	0.068403
	O372	O	0.575476	0.514716	0.451813
	H373	H	0.580631	0.518826	0.453494
	H374	H	0.562168	0.513852	0.455291
	O375	O	1.038691	0.071882	0.954201
	H376	H	1.040162	0.077998	0.961958
	H377	H	1.035645	0.083080	0.956586
	O378	O	-0.084806	0.923086	-0.014988
	H379	H	-0.080565	0.926040	-0.006358
	H380	H	-0.079871	0.919542	-0.020613
	O381	O	0.428698	0.538371	0.373263
	H382	H	0.436537	0.536207	0.367798
	H383	H	0.418734	0.525237	0.361669
	O384	O	0.965159	1.026634	-0.046714
	H385	H	0.963476	1.021656	-0.055398
	H386	H	0.964201	1.033008	-0.042890
	O387	O	1.567325	0.465433	1.448509
	H388	H	1.566341	0.464623	1.447808
	H389	H	1.570821	0.467121	1.459794
	O390	O	1.048606	1.024645	0.045696
	H391	H	1.049729	1.030522	0.048548
	H392	H	1.058904	1.010239	0.055752
	O393	O	0.404484	0.487959	0.517725
	H394	H	0.404739	0.487831	0.518916
	H395	H	0.412068	0.493594	0.531957
