data_Molecule from HDF5

_cell_length_a		16.569192
_cell_length_b		16.445974
_cell_length_c		16.528603
_cell_angle_alpha	89.751203
_cell_angle_beta	89.954539
_cell_angle_gamma	89.922587
_symmetry_space_group_name_H-M	'P 1'
_symmetry_Int_Tables_number		1

loop_
	_symmetry_equiv_pos_as_xyz
	x,y,z

loop_
	_atom_site_label
	_atom_site_type_symbol
	_atom_site_fract_x
	_atom_site_fract_y
	_atom_site_fract_z
	H0	H	0.397861	0.847207	0.717732
	H1	H	0.604455	0.163931	0.719259
	H2	H	0.605900	0.849313	0.276209
	H3	H	0.393151	0.163993	0.275701
	H4	H	0.721467	0.401078	0.843348
	H5	H	0.722697	0.613372	0.155368
	H6	H	0.278584	0.609978	0.843587
	H7	H	0.274789	0.395646	0.156903
	H8	H	0.841715	0.728755	0.394263
	H9	H	0.156872	0.724833	0.600440
	H10	H	0.842564	0.285647	0.603391
	H11	H	0.154668	0.280845	0.389202
	H12	H	0.842635	0.401624	0.720712
	H13	H	0.156998	0.607834	0.719040
	H14	H	0.844064	0.616061	0.274234
	H15	H	0.154165	0.397454	0.273244
	H16	H	0.395944	0.726104	0.842541
	H17	H	0.604259	0.727052	0.157221
	H18	H	0.603988	0.286489	0.842420
	H19	H	0.392715	0.281028	0.156591
	H20	H	0.720878	0.847766	0.393580
	H21	H	0.721102	0.163338	0.603991
	H22	H	0.279728	0.848002	0.602803
	H23	H	0.275639	0.163254	0.389687
	H24	H	0.892692	0.350423	0.223664
	H25	H	0.105598	0.663479	0.222085
	H26	H	0.103223	0.347105	0.781626
	H27	H	0.897112	0.664744	0.779128
	H28	H	0.221805	0.900596	0.341957
	H29	H	0.219827	0.109810	0.655713
	H30	H	0.777900	0.111236	0.342255
	H31	H	0.779205	0.902328	0.657777
	H32	H	0.342852	0.229112	0.893263
	H33	H	0.656065	0.226380	0.101863
	H34	H	0.341185	0.786363	0.103078
	H35	H	0.656479	0.784607	0.894137
	H36	H	0.341812	0.900984	0.221279
	H37	H	0.654881	0.112722	0.221686
	H38	H	0.343397	0.113061	0.775961
	H39	H	0.656760	0.902349	0.777958
	H40	H	0.893913	0.229472	0.342652
	H41	H	0.103017	0.225164	0.656197
	H42	H	0.103135	0.785963	0.341412
	H43	H	0.897834	0.787674	0.659022
	H44	H	0.220774	0.347842	0.896342
	H45	H	0.222714	0.662910	0.107103
	H46	H	0.778354	0.349099	0.104599
	H47	H	0.778211	0.664020	0.892870
	H48	H	0.408679	0.118727	0.583309
	H49	H	0.591730	0.890410	0.593412
	H50	H	0.584166	0.119967	0.402140
	H51	H	0.407423	0.893184	0.411725
	H52	H	0.588928	0.417974	0.112243
	H53	H	0.587458	0.590231	0.889548
	H54	H	0.417193	0.596102	0.111289
	H55	H	0.411815	0.421376	0.891227
	H56	H	0.108149	0.592885	0.414528
	H57	H	0.887506	0.596546	0.587379
	H58	H	0.111744	0.414145	0.586348
	H59	H	0.890114	0.422697	0.412421
	H60	H	0.111393	0.419116	0.593032
	H61	H	0.886934	0.592955	0.592319
	H62	H	0.110234	0.591840	0.408627
	H63	H	0.889225	0.419144	0.412536
	H64	H	0.405576	0.601439	0.117144
	H65	H	0.584398	0.598883	0.887943
	H66	H	0.586793	0.418749	0.111060
	H67	H	0.411702	0.416873	0.889188
	H68	H	0.582335	0.113467	0.417143
	H69	H	0.583372	0.894382	0.589023
	H70	H	0.404981	0.121305	0.590603
	H71	H	0.415126	0.894769	0.409115
	H72	H	0.914399	0.619318	0.089809
	H73	H	0.085211	0.397491	0.080070
	H74	H	0.089300	0.618995	0.911041
	H75	H	0.912628	0.395220	0.915014
	H76	H	0.085055	0.912104	0.610781
	H77	H	0.089476	0.090690	0.387237
	H78	H	0.914967	0.096017	0.610607
	H79	H	0.913849	0.919575	0.388586
	H80	H	0.612196	0.093802	0.902994
	H81	H	0.387550	0.097346	0.083929
	H82	H	0.612337	0.915153	0.088627
	H83	H	0.388815	0.922081	0.909400
	H84	H	0.609682	0.918250	0.086266
	H85	H	0.389475	0.089239	0.085884
	H86	H	0.612978	0.100925	0.909939
	H87	H	0.385215	0.915278	0.904190
	H88	H	0.906041	0.099667	0.614301
	H89	H	0.084180	0.093069	0.387387
	H90	H	0.094870	0.914927	0.613013
	H91	H	0.909051	0.911445	0.384995
	H92	H	0.090466	0.619473	0.909847
	H93	H	0.091486	0.392569	0.089613
	H94	H	0.913284	0.616951	0.081515
	H95	H	0.903348	0.391222	0.911657
	H96	H	0.412703	0.119415	0.590636
	H97	H	0.592168	0.893960	0.583616
	H98	H	0.596619	0.120445	0.412746
	H99	H	0.412662	0.896624	0.416831
	H100	H	0.587202	0.415864	0.111397
	H101	H	0.592586	0.596465	0.885538
	H102	H	0.405847	0.588007	0.112493
	H103	H	0.407911	0.420175	0.888759
	H104	H	0.110427	0.598091	0.410942
	H105	H	0.884716	0.598804	0.593065
	H106	H	0.115280	0.412161	0.593177
	H107	H	0.890825	0.420684	0.415390
	H108	H	0.906611	0.620663	0.085814
	H109	H	0.080291	0.395546	0.090699
	H110	H	0.088704	0.619451	0.909166
	H111	H	0.911648	0.391375	0.904815
	H112	H	0.088124	0.922335	0.609328
	H113	H	0.088490	0.095875	0.385128
	H114	H	0.907077	0.089784	0.611179
	H115	H	0.904088	0.920354	0.386509
	H116	H	0.609021	0.092316	0.912520
	H117	H	0.385585	0.094098	0.091872
	H118	H	0.610743	0.919121	0.090507
	H119	H	0.387238	0.913634	0.913470
	C120	C	0.378007	0.014871	0.619590
	C121	C	0.620681	0.997640	0.619961
	C122	C	0.620730	0.014148	0.377700
	C123	C	0.378623	0.998356	0.378401
	C124	C	0.620116	0.385234	0.008070
	C125	C	0.620993	0.627812	0.991169
	C126	C	0.377786	0.627114	0.009571
	C127	C	0.377776	0.384915	0.992675
	C128	C	0.007034	0.628438	0.377781
	C129	C	0.990703	0.627407	0.621251
	C130	C	0.008659	0.383394	0.622035
	C131	C	0.991796	0.386078	0.378302
	C132	C	0.878347	0.515336	0.119939
	C133	C	0.119303	0.498366	0.120505
	C134	C	0.121198	0.514638	0.878852
	C135	C	0.877814	0.497534	0.877985
	C136	C	0.121095	0.884646	0.507234
	C137	C	0.119928	0.126193	0.490191
	C138	C	0.877390	0.127736	0.507943
	C139	C	0.878086	0.885193	0.491402
	C140	C	0.508022	0.128684	0.876012
	C141	C	0.490660	0.126693	0.119942
	C142	C	0.507251	0.884959	0.121192
	C143	C	0.491379	0.885125	0.877639
	C144	C	0.377892	0.895232	0.678521
	C145	C	0.622762	0.116529	0.679383
	C146	C	0.623967	0.896100	0.316761
	C147	C	0.375243	0.116752	0.316232
	C148	C	0.681008	0.382976	0.890369
	C149	C	0.681909	0.630844	0.108803
	C150	C	0.318794	0.628295	0.890540
	C151	C	0.316133	0.379379	0.110068
	C152	C	0.889259	0.689203	0.375230
	C153	C	0.109822	0.685576	0.620663
	C154	C	0.889866	0.325006	0.622582
	C155	C	0.108119	0.322668	0.372880
	C156	C	0.890158	0.382672	0.680870
	C157	C	0.109798	0.627743	0.679312
	C158	C	0.890232	0.632938	0.315794
	C159	C	0.107846	0.380698	0.314738
	C160	C	0.376874	0.686335	0.890163
	C161	C	0.622805	0.687447	0.109691
	C162	C	0.622338	0.326053	0.889630
	C163	C	0.374566	0.321932	0.109949
	C164	C	0.681361	0.895642	0.375041
	C165	C	0.680714	0.116241	0.621989
	C166	C	0.319254	0.895484	0.621485
	C167	C	0.316833	0.116446	0.373255
	C168	C	0.874942	0.397162	0.182165
	C169	C	0.123492	0.616259	0.181950
	C170	C	0.122303	0.394817	0.820581
	C171	C	0.877512	0.616894	0.818446
	C172	C	0.181157	0.882447	0.388856
	C173	C	0.179956	0.128192	0.608390
	C174	C	0.817798	0.130050	0.389408
	C175	C	0.819231	0.883718	0.610549
	C176	C	0.389923	0.188842	0.874555
	C177	C	0.608964	0.186591	0.121158
	C178	C	0.388702	0.825601	0.122390
	C179	C	0.609481	0.825085	0.875777
	C180	C	0.389023	0.882735	0.181045
	C181	C	0.608202	0.130175	0.180742
	C182	C	0.390127	0.131426	0.816147
	C183	C	0.609396	0.883487	0.817814
	C184	C	0.875375	0.188630	0.389557
	C185	C	0.121843	0.185641	0.608676
	C186	C	0.122109	0.825562	0.388555
	C187	C	0.878145	0.826718	0.611094
	C188	C	0.180809	0.395265	0.877544
	C189	C	0.181763	0.615831	0.124723
	C190	C	0.818168	0.396389	0.123239
	C191	C	0.818429	0.616799	0.875133
	C192	C	0.401832	0.098214	0.595161
	C193	C	0.596107	0.914589	0.595534
	C194	C	0.594947	0.096513	0.403329
	C195	C	0.404565	0.916446	0.404886
	C196	C	0.594817	0.410356	0.090471
	C197	C	0.595526	0.602431	0.909170
	C198	C	0.402394	0.602297	0.092104
	C199	C	0.403269	0.411935	0.910963
	C200	C	0.088431	0.601808	0.403945
	C201	C	0.907987	0.603264	0.597560
	C202	C	0.091351	0.408063	0.597507
	C203	C	0.910958	0.413315	0.405766
	C204	C	0.904078	0.597601	0.093387
	C205	C	0.093023	0.416556	0.094277
	C206	C	0.096523	0.597737	0.903002
	C207	C	0.901976	0.414336	0.903340
	C208	C	0.096463	0.909230	0.589604
	C209	C	0.094521	0.100823	0.408044
	C210	C	0.902155	0.102383	0.590506
	C211	C	0.902164	0.909923	0.408367
	C212	C	0.590005	0.102978	0.901236
	C213	C	0.408835	0.100860	0.094544
	C214	C	0.589384	0.910184	0.095872
	C215	C	0.408761	0.909900	0.902260
	Zn216	Zn	0.499376	0.006769	0.747968
	Zn217	Zn	0.498683	0.006460	0.249792
	Zn218	Zn	0.749456	0.506477	-0.000207
	Zn219	Zn	0.248512	0.505139	0.001172
	Zn220	Zn	-0.001219	0.756194	0.499631
	Zn221	Zn	-0.000210	0.255666	0.498948
	Zn222	Zn	0.000191	0.505668	0.750806
	Zn223	Zn	-0.001370	0.507123	0.248968
	Zn224	Zn	0.499543	0.756077	0.000125
	Zn225	Zn	0.498704	0.255951	-0.000698
	Zn226	Zn	0.749275	0.005851	0.499032
	Zn227	Zn	0.249781	0.006078	0.498096
	N228	N	0.413378	0.970692	0.677881
	N229	N	0.585950	0.041877	0.678042
	N230	N	0.586957	0.970873	0.318193
	N231	N	0.413187	0.042529	0.319499
	N232	N	0.679706	0.419094	0.965113
	N233	N	0.680726	0.594410	0.034211
	N234	N	0.318939	0.592553	0.965838
	N235	N	0.318120	0.417923	0.036168
	N236	N	0.962999	0.686571	0.412922
	N237	N	0.034729	0.685506	0.585686
	N238	N	0.964763	0.325287	0.586777
	N239	N	0.035029	0.326194	0.412017
	N240	N	0.965124	0.418149	0.680866
	N241	N	0.034776	0.592294	0.679920
	N242	N	0.964708	0.596174	0.317025
	N243	N	0.034596	0.419614	0.318150
	N244	N	0.412742	0.685857	0.965058
	N245	N	0.585412	0.685593	0.035552
	N246	N	0.585051	0.327258	0.963884
	N247	N	0.412320	0.325400	0.036041
	N248	N	0.679428	0.970218	0.412191
	N249	N	0.679775	0.041159	0.585893
	N250	N	0.319208	0.971002	0.585626
	N251	N	0.318701	0.041965	0.411104
	N252	N	0.911232	0.472176	0.180337
	N253	N	0.085428	0.542134	0.179469
	N254	N	0.086081	0.470183	0.821122
	N255	N	0.913568	0.541695	0.820047
	N256	N	0.180720	0.918392	0.463521
	N257	N	0.179220	0.092208	0.533551
	N258	N	0.818856	0.093182	0.464046
	N259	N	0.818630	0.918838	0.534894
	N260	N	0.464321	0.187327	0.911007
	N261	N	0.534923	0.184403	0.084069
	N262	N	0.463355	0.826705	0.086050
	N263	N	0.534976	0.825910	0.912325
	N264	N	0.463939	0.918521	0.180659
	N265	N	0.533629	0.093784	0.180041
	N266	N	0.464622	0.094997	0.816730
	N267	N	0.534774	0.919958	0.818822
	N268	N	0.911465	0.187361	0.464351
	N269	N	0.085473	0.184693	0.534095
	N270	N	0.085491	0.826687	0.463167
	N271	N	0.913498	0.827355	0.535915
	N272	N	0.180455	0.470728	0.912827
	N273	N	0.179342	0.541491	0.087419
	N274	N	0.820038	0.470976	0.085493
	N275	N	0.818440	0.541379	0.911370
	O276	O	1.025622	0.977885	0.208052
	H277	H	1.016469	0.965242	0.201756
	H278	H	1.015843	0.966702	0.207714
	O279	O	-0.035943	0.224556	0.780924
	H280	H	-0.057378	0.235538	0.770939
	H281	H	-0.061700	0.239070	0.766741
	O282	O	0.711994	0.537020	0.715141
	H283	H	0.732325	0.530681	0.725282
	H284	H	0.714051	0.521342	0.702228
	O285	O	0.278527	0.287817	0.529320
	H286	H	0.265407	0.273078	0.545045
	H287	H	0.274325	0.290196	0.520084
	O288	O	0.868265	-0.017369	0.982219
	H289	H	0.862177	-0.017891	0.970290
	H290	H	0.877697	-0.025153	0.984224
	O291	O	0.719908	0.728492	0.535673
	H292	H	0.721843	0.729297	0.567529
	H293	H	0.737321	0.752980	0.536495
	O294	O	0.171240	-0.117404	0.148785
	H295	H	0.154450	-0.112129	0.126744
	H296	H	0.157611	-0.109777	0.136754
	O297	O	0.829666	0.175218	0.190993
	H298	H	0.861522	0.175574	0.181072
	H299	H	0.838975	0.150760	0.172664
	O300	O	0.195057	0.087298	0.118770
	H301	H	0.179582	0.095789	0.106871
	H302	H	0.204748	0.055654	0.126867
	O303	O	-0.018899	0.029130	-0.000025
	H304	H	-0.020185	0.038313	-0.004137
	H305	H	-0.011914	0.043712	-0.016511
	O306	O	1.115626	0.112068	0.168810
	H307	H	1.117769	0.115750	0.159656
	H308	H	1.105806	0.084171	0.168071
	O309	O	0.433849	0.414399	0.498503
	H310	H	0.433090	0.427660	0.488984
	H311	H	0.443939	0.413240	0.493118
	O312	O	0.329341	0.227224	0.332420
	H313	H	0.322405	0.222701	0.337773
	H314	H	0.337988	0.218264	0.344140
	O315	O	0.457141	0.724224	0.535028
	H316	H	0.468124	0.731419	0.531511
	H317	H	0.459271	0.724854	0.527376
	O318	O	0.953192	0.948792	-0.218642
	H319	H	0.969038	0.953427	-0.222671
	H320	H	0.954158	0.949818	-0.225803
	O321	O	0.177516	0.924509	0.917287
	H322	H	0.191556	0.934581	0.910928
	H323	H	0.186787	0.903795	0.915896
	O324	O	0.781759	-0.077411	0.916605
	H325	H	0.783024	-0.076806	0.926241
	H326	H	0.791453	-0.065473	0.904474
	O327	O	0.695624	0.708234	0.701488
	H328	H	0.691276	0.724402	0.717506
	H329	H	0.706750	0.668839	0.704653
	O330	O	0.305971	0.699991	0.310067
	H331	H	0.287864	0.693233	0.303426
	H332	H	0.298850	0.669592	0.308414
	O333	O	0.287564	0.423275	0.407617
	H334	H	0.276323	0.431659	0.399593
	H335	H	0.289364	0.423815	0.410302
	O336	O	0.302375	0.708744	0.476932
	H337	H	0.292518	0.714131	0.465884
	H338	H	0.311587	0.716309	0.464846
	O339	O	0.276386	0.539539	0.524101
	H340	H	0.281843	0.530807	0.523637
	H341	H	0.276494	0.548293	0.518440
	O342	O	0.221805	1.074181	-0.022800
	H343	H	0.238944	1.079842	-0.047951
	H344	H	0.209051	1.081338	-0.014700
	O345	O	0.628621	0.378126	0.705953
	H346	H	0.623012	0.375966	0.685651
	H347	H	0.615623	0.382177	0.700979
	O348	O	0.289352	0.477058	0.710497
	H349	H	0.289414	0.489453	0.727170
	H350	H	0.292045	0.492001	0.705303
	O351	O	0.116029	0.185916	0.961624
	H352	H	0.110431	0.182171	0.952345
	H353	H	0.122678	0.175664	0.966121
	O354	O	0.791060	-0.201494	1.016870
	H355	H	0.784798	-0.199924	1.038457
	H356	H	0.790718	-0.216822	1.018312
	O357	O	0.469755	0.727532	0.279651
	H358	H	0.447632	0.741890	0.271636
	H359	H	0.445648	0.741222	0.268801
	O360	O	0.547452	0.486257	0.502525
	H361	H	0.546141	0.470078	0.498649
	H362	H	0.556515	0.506088	0.511545
	O363	O	0.719201	0.484406	0.281705
	H364	H	0.717242	0.459959	0.281490
	H365	H	0.734342	0.470199	0.260343
	O366	O	0.790413	0.112063	0.789269
	H367	H	0.778648	0.108411	0.776389
	H368	H	0.780925	0.116959	0.807382
	O369	O	-0.133628	0.117204	1.020650
	H370	H	-0.149072	0.114346	1.026947
	H371	H	-0.127990	0.118637	1.027346
	O372	O	0.039844	1.066937	0.787492
	H373	H	0.030472	1.091707	0.784089
	H374	H	0.059712	1.081600	0.784578
	O375	O	0.789735	-0.020555	0.209473
	H376	H	0.767950	-0.017304	0.212634
	H377	H	0.781216	-0.007249	0.196388
	O378	O	0.533681	0.493668	0.492900
	H379	H	0.528455	0.508818	0.497272
	H380	H	0.541024	0.488470	0.481714
	O381	O	-0.161152	1.034878	0.071659
	H382	H	-0.170172	1.044721	0.050105
	H383	H	-0.141936	1.035929	0.056360
	O384	O	0.510654	0.290003	0.643950
	H385	H	0.488546	0.296865	0.622538
	H386	H	0.512040	0.267094	0.643632
	O387	O	0.207567	0.795566	0.791179
	H388	H	0.182029	0.808226	0.793059
	H389	H	0.238292	0.763820	0.756686
	O390	O	0.219055	1.225281	0.776735
	H391	H	0.227470	1.219808	0.800987
	H392	H	0.237599	1.262341	0.760492
	O393	O	0.952166	0.229412	0.041906
	H394	H	0.959983	0.232473	0.041767
	H395	H	0.970021	0.225023	0.039835
	O396	O	0.426487	0.381836	0.335662
	H397	H	0.426980	0.386671	0.339175
	H398	H	0.431700	0.384859	0.322714
	O399	O	0.524578	0.713782	0.706480
	H400	H	0.542034	0.709019	0.697490
	H401	H	0.527231	0.732349	0.718791
	O402	O	0.965887	-0.209165	0.975937
	H403	H	0.964139	-0.203275	0.973878
	H404	H	0.978122	-0.200154	0.975697
	O405	O	0.705780	0.452561	0.555386
	H406	H	0.711091	0.455717	0.532063
	H407	H	0.711468	0.444583	0.535880
	O408	O	1.115669	0.789565	0.982306
	H409	H	1.121703	0.780788	0.967264
	H410	H	1.119155	0.784441	0.972951
	O411	O	0.800091	0.812122	0.185956
	H412	H	0.821352	0.815811	0.178800
	H413	H	0.794079	0.828755	0.203898
	O414	O	0.152335	-0.023732	0.073661
	H415	H	0.162236	-0.022554	0.071986
	H416	H	0.145234	-0.026056	0.065175
	O417	O	0.701651	0.543865	0.480049
	H418	H	0.703801	0.569747	0.477485
	H419	H	0.692132	0.550005	0.469424
	O420	O	1.217645	-0.031906	0.785148
	H421	H	1.228072	-0.031246	0.768131
	H422	H	1.217519	-0.047526	0.773269
	O423	O	0.984824	1.148479	0.199782
	H424	H	1.006902	1.136442	0.187226
	H425	H	0.978065	1.140874	0.216185
	O426	O	0.515820	0.564569	0.642519
	H427	H	0.523530	0.561953	0.646756
	H428	H	0.540703	0.569514	0.643437
	O429	O	0.568077	0.707813	0.449544
	H430	H	0.582109	0.717407	0.447312
	H431	H	0.568304	0.698598	0.442530
	O432	O	0.807178	0.126700	0.906300
	H433	H	0.810970	0.138220	0.892531
	H434	H	0.818096	0.138436	0.897908
	O435	O	0.710287	0.287656	0.478712
	H436	H	0.696774	0.294420	0.433507
	H437	H	0.739509	0.258430	0.473045
	O438	O	0.287203	0.535784	0.290280
	H439	H	0.306742	0.512922	0.309879
	H440	H	0.262797	0.529677	0.264240
	O441	O	0.664870	0.640914	0.335641
	H442	H	0.661518	0.637619	0.343050
	H443	H	0.663418	0.629413	0.339602
	O444	O	0.697095	0.310797	0.300514
	H445	H	0.711112	0.279571	0.267645
	H446	H	0.656622	0.319399	0.300188
	O447	O	0.746487	0.264639	0.746937
	H448	H	0.737014	0.248116	0.739761
	H449	H	0.721922	0.281044	0.725815
	O450	O	1.129046	0.213457	0.028022
	H451	H	1.129990	0.209710	0.015650
	H452	H	1.140957	0.216658	0.015863
	O453	O	0.468569	0.526964	0.363106
	H454	H	0.489636	0.542088	0.363787
	H455	H	0.469396	0.544616	0.365315
	O456	O	0.034703	0.794631	0.788977
	H457	H	0.041500	0.792547	0.788351
	H458	H	0.030317	0.782066	0.789966
	O459	O	0.456788	0.430012	0.719630
	H460	H	0.477374	0.418863	0.698417
	H461	H	0.468052	0.415093	0.728213
	O462	O	0.533541	0.295818	0.289279
	H463	H	0.515720	0.307182	0.288237
	H464	H	0.519348	0.278623	0.283762
	O465	O	0.311805	0.691887	0.686624
	H466	H	0.329891	0.673890	0.666765
	H467	H	0.331538	0.674141	0.669989
	O468	O	0.025121	0.821962	-0.020918
	H469	H	0.028832	0.811220	-0.024212
	H470	H	0.037330	0.832356	-0.030693
	O471	O	0.550595	0.405784	0.470146
	H472	H	0.558172	0.415199	0.462369
	H473	H	0.552526	0.414522	0.474171
	O474	O	0.965858	0.796915	0.209535
	H475	H	0.962547	0.782343	0.198768
	H476	H	0.965498	0.778156	0.213542
	O477	O	0.296597	0.361793	0.666891
	H478	H	0.311848	0.348969	0.637767
	H479	H	0.293049	0.398999	0.667202
