data_Molecule from HDF5

_cell_length_a		16.485709
_cell_length_b		16.534547
_cell_length_c		16.521428
_cell_angle_alpha	89.948855
_cell_angle_beta	90.003510
_cell_angle_gamma	90.103689
_symmetry_space_group_name_H-M	'P 1'
_symmetry_Int_Tables_number		1

loop_
	_symmetry_equiv_pos_as_xyz
	x,y,z

loop_
	_atom_site_label
	_atom_site_type_symbol
	_atom_site_fract_x
	_atom_site_fract_y
	_atom_site_fract_z
	H0	H	0.393748	0.848801	0.717525
	H1	H	0.602201	0.163072	0.721765
	H2	H	0.604342	0.851765	0.276863
	H3	H	0.391202	0.163018	0.273901
	H4	H	0.715404	0.405761	0.840645
	H5	H	0.718285	0.610308	0.156088
	H6	H	0.275830	0.611017	0.842252
	H7	H	0.272254	0.399105	0.155221
	H8	H	0.840976	0.729937	0.392829
	H9	H	0.157076	0.725544	0.598767
	H10	H	0.841620	0.285696	0.602912
	H11	H	0.153424	0.285023	0.389208
	H12	H	0.839286	0.405444	0.715746
	H13	H	0.156754	0.609039	0.716149
	H14	H	0.841284	0.614513	0.276336
	H15	H	0.151849	0.399755	0.272080
	H16	H	0.392692	0.727922	0.842769
	H17	H	0.601956	0.726114	0.157132
	H18	H	0.599522	0.287001	0.840832
	H19	H	0.387779	0.281742	0.155244
	H20	H	0.718547	0.850847	0.395265
	H21	H	0.720478	0.162852	0.606378
	H22	H	0.276193	0.850529	0.601538
	H23	H	0.275907	0.164307	0.391542
	H24	H	0.890230	0.351449	0.221928
	H25	H	0.103630	0.663519	0.220620
	H26	H	0.100496	0.349048	0.777909
	H27	H	0.894582	0.666077	0.779260
	H28	H	0.217435	0.906000	0.339897
	H29	H	0.219847	0.113192	0.654804
	H30	H	0.772954	0.114111	0.343699
	H31	H	0.779983	0.904194	0.657320
	H32	H	0.339213	0.228458	0.893961
	H33	H	0.654801	0.229332	0.104301
	H34	H	0.339532	0.787800	0.103607
	H35	H	0.654807	0.787280	0.895674
	H36	H	0.340530	0.904559	0.219709
	H37	H	0.655655	0.112341	0.219753
	H38	H	0.338731	0.111206	0.779096
	H39	H	0.654175	0.903953	0.780056
	H40	H	0.891133	0.231151	0.342371
	H41	H	0.103869	0.229643	0.654683
	H42	H	0.101627	0.787948	0.339974
	H43	H	0.895649	0.787624	0.656412
	H44	H	0.215408	0.347849	0.895191
	H45	H	0.219287	0.662663	0.103725
	H46	H	0.776588	0.349982	0.102170
	H47	H	0.778914	0.666218	0.895913
	H48	H	0.409830	0.121063	0.591874
	H49	H	0.585562	0.896250	0.584990
	H50	H	0.586212	0.119818	0.410998
	H51	H	0.407927	0.898767	0.420288
	H52	H	0.585594	0.419622	0.110030
	H53	H	0.587987	0.594819	0.886465
	H54	H	0.408018	0.590654	0.110903
	H55	H	0.416196	0.420736	0.891899
	H56	H	0.110917	0.596678	0.407165
	H57	H	0.884746	0.598137	0.586806
	H58	H	0.109015	0.420902	0.582842
	H59	H	0.890928	0.423751	0.421449
	H60	H	0.112728	0.421230	0.593965
	H61	H	0.883360	0.597215	0.592392
	H62	H	0.110923	0.599041	0.410809
	H63	H	0.886190	0.426996	0.406231
	H64	H	0.411492	0.598400	0.111432
	H65	H	0.584142	0.598986	0.886301
	H66	H	0.583993	0.415746	0.111428
	H67	H	0.407606	0.409264	0.884785
	H68	H	0.584592	0.119392	0.410961
	H69	H	0.595379	0.891413	0.590539
	H70	H	0.411082	0.118856	0.588352
	H71	H	0.402352	0.892516	0.405381
	H72	H	0.904794	0.622758	0.091669
	H73	H	0.078654	0.400125	0.075668
	H74	H	0.086888	0.618618	0.909640
	H75	H	0.908641	0.394662	0.905528
	H76	H	0.090958	0.918251	0.611002
	H77	H	0.091829	0.095557	0.384227
	H78	H	0.914347	0.090162	0.606998
	H79	H	0.909202	0.921135	0.386647
	H80	H	0.607276	0.092223	0.911770
	H81	H	0.385924	0.096108	0.086481
	H82	H	0.612162	0.913916	0.089373
	H83	H	0.382927	0.916112	0.908486
	H84	H	0.609896	0.917312	0.085771
	H85	H	0.386844	0.093360	0.084280
	H86	H	0.611047	0.096923	0.906803
	H87	H	0.383808	0.914430	0.911402
	H88	H	0.915104	0.101402	0.610021
	H89	H	0.083097	0.092831	0.388742
	H90	H	0.086147	0.919870	0.609135
	H91	H	0.909707	0.915464	0.385308
	H92	H	0.089182	0.619812	0.908066
	H93	H	0.093269	0.391180	0.086471
	H94	H	0.913195	0.617786	0.089635
	H95	H	0.905728	0.394896	0.909445
	H96	H	0.406872	0.120509	0.588203
	H97	H	0.585182	0.892380	0.596218
	H98	H	0.585392	0.118865	0.412369
	H99	H	0.418378	0.898543	0.407140
	H100	H	0.588221	0.416600	0.112119
	H101	H	0.589517	0.599853	0.884888
	H102	H	0.403348	0.597129	0.113854
	H103	H	0.401173	0.423368	0.886818
	H104	H	0.109348	0.594555	0.410363
	H105	H	0.882262	0.602410	0.589581
	H106	H	0.113546	0.411777	0.587549
	H107	H	0.883436	0.412739	0.412444
	H108	H	0.906292	0.618416	0.082656
	H109	H	0.075255	0.395294	0.095014
	H110	H	0.086376	0.619336	0.906541
	H111	H	0.903822	0.392996	0.905032
	H112	H	0.086615	0.914253	0.611311
	H113	H	0.084289	0.102595	0.385048
	H114	H	0.905201	0.095278	0.612221
	H115	H	0.904358	0.918135	0.384791
	H116	H	0.609341	0.099721	0.913865
	H117	H	0.385909	0.092769	0.088108
	H118	H	0.611587	0.919660	0.090600
	H119	H	0.384324	0.917704	0.910884
	C120	C	0.376648	0.015663	0.620019
	C121	C	0.620095	0.997401	0.622461
	C122	C	0.618768	0.015922	0.378762
	C123	C	0.376808	0.999433	0.377255
	C124	C	0.617843	0.385847	0.007202
	C125	C	0.618798	0.628747	0.990504
	C126	C	0.375628	0.627738	0.008162
	C127	C	0.375127	0.384870	0.991348
	C128	C	0.006426	0.628959	0.377367
	C129	C	0.989459	0.628971	0.619299
	C130	C	0.007306	0.386207	0.619524
	C131	C	0.989116	0.387289	0.377907
	C132	C	0.875817	0.515890	0.120182
	C133	C	0.117011	0.498714	0.119080
	C134	C	0.118629	0.515022	0.876735
	C135	C	0.875403	0.499146	0.876490
	C136	C	0.119321	0.886408	0.506125
	C137	C	0.119532	0.129792	0.489409
	C138	C	0.877098	0.128885	0.506934
	C139	C	0.876850	0.886400	0.489897
	C140	C	0.505184	0.128087	0.878301
	C141	C	0.489682	0.127701	0.119756
	C142	C	0.506972	0.885372	0.121163
	C143	C	0.487864	0.884941	0.878614
	C144	C	0.374651	0.896470	0.678288
	C145	C	0.621551	0.115858	0.682144
	C146	C	0.622216	0.898551	0.317603
	C147	C	0.373321	0.116563	0.314919
	C148	C	0.676401	0.385491	0.887983
	C149	C	0.678334	0.629121	0.109179
	C150	C	0.316053	0.629671	0.889488
	C151	C	0.313322	0.381296	0.108719
	C152	C	0.888217	0.689937	0.374443
	C153	C	0.109675	0.686263	0.618536
	C154	C	0.888555	0.326004	0.621512
	C155	C	0.106202	0.325201	0.371996
	C156	C	0.887331	0.385605	0.677272
	C157	C	0.109173	0.628807	0.677087
	C158	C	0.888307	0.632326	0.316740
	C159	C	0.105594	0.382541	0.313955
	C160	C	0.374053	0.687713	0.889850
	C161	C	0.620479	0.686679	0.109555
	C162	C	0.618760	0.326789	0.888185
	C163	C	0.370878	0.323091	0.108619
	C164	C	0.678902	0.897952	0.376618
	C165	C	0.679958	0.115881	0.624585
	C166	C	0.316072	0.897479	0.621052
	C167	C	0.315979	0.117158	0.373400
	C168	C	0.872320	0.398061	0.181098
	C169	C	0.121021	0.616234	0.180008
	C170	C	0.119469	0.396278	0.817425
	C171	C	0.875377	0.618411	0.818493
	C172	C	0.177909	0.886445	0.387144
	C173	C	0.179801	0.131774	0.607479
	C174	C	0.814538	0.132554	0.389860
	C175	C	0.819008	0.885318	0.609531
	C176	C	0.386579	0.188223	0.875651
	C177	C	0.607670	0.188890	0.122577
	C178	C	0.387507	0.827017	0.122455
	C179	C	0.607160	0.826819	0.877328
	C180	C	0.387879	0.884836	0.180275
	C181	C	0.608314	0.130767	0.179911
	C182	C	0.386064	0.129751	0.818625
	C183	C	0.606999	0.884758	0.819723
	C184	C	0.873215	0.190244	0.389251
	C185	C	0.122285	0.189872	0.607415
	C186	C	0.120455	0.827768	0.387247
	C187	C	0.876516	0.827126	0.608971
	C188	C	0.176399	0.395683	0.876147
	C189	C	0.178868	0.616012	0.122057
	C190	C	0.816074	0.397302	0.121544
	C191	C	0.817474	0.618360	0.876472
	C192	C	0.401991	0.098403	0.596367
	C193	C	0.595558	0.914910	0.597646
	C194	C	0.592738	0.097977	0.404232
	C195	C	0.402393	0.917898	0.403398
	C196	C	0.593138	0.410430	0.089671
	C197	C	0.594187	0.604778	0.907328
	C198	C	0.400452	0.602609	0.090595
	C199	C	0.401051	0.410434	0.909286
	C200	C	0.088831	0.603937	0.402486
	C201	C	0.905484	0.605965	0.596183
	C202	C	0.090023	0.410920	0.595233
	C203	C	0.907959	0.413769	0.405373
	C204	C	0.900730	0.598122	0.095170
	C205	C	0.090078	0.416760	0.093108
	C206	C	0.094357	0.597794	0.901056
	C207	C	0.899096	0.416007	0.900053
	C208	C	0.094942	0.910324	0.589100
	C209	C	0.093934	0.104324	0.407214
	C210	C	0.903755	0.103066	0.588372
	C211	C	0.900657	0.911100	0.407102
	C212	C	0.587713	0.103248	0.903392
	C213	C	0.407708	0.101470	0.093916
	C214	C	0.589779	0.910044	0.096004
	C215	C	0.405165	0.909186	0.903197
	Zn216	Zn	0.496102	0.006648	0.749976
	Zn217	Zn	0.498752	0.007612	0.248750
	Zn218	Zn	0.746866	0.507816	-0.001154
	Zn219	Zn	0.246673	0.505926	-0.001089
	Zn220	Zn	-0.001800	0.757478	0.497853
	Zn221	Zn	-0.001654	0.258535	0.498013
	Zn222	Zn	-0.002636	0.507683	0.748096
	Zn223	Zn	-0.003295	0.507653	0.248935
	Zn224	Zn	0.497569	0.756456	0.000482
	Zn225	Zn	0.496754	0.256545	-0.000605
	Zn226	Zn	0.747349	0.007342	0.499581
	Zn227	Zn	0.248140	0.008467	0.497870
	N228	N	0.411217	0.971157	0.677994
	N229	N	0.585034	0.041165	0.681083
	N230	N	0.585402	0.973005	0.318973
	N231	N	0.410532	0.042486	0.317291
	N232	N	0.676193	0.421088	0.963014
	N233	N	0.677558	0.594030	0.033794
	N234	N	0.316833	0.593034	0.964168
	N235	N	0.315907	0.418897	0.034782
	N236	N	0.962777	0.687981	0.411477
	N237	N	0.033968	0.686882	0.583877
	N238	N	0.964204	0.326018	0.586633
	N239	N	0.032873	0.328104	0.411308
	N240	N	0.962277	0.422113	0.676541
	N241	N	0.033406	0.594328	0.677875
	N242	N	0.962785	0.595275	0.318248
	N243	N	0.031835	0.420537	0.317756
	N244	N	0.410078	0.686893	0.964721
	N245	N	0.584364	0.686585	0.034731
	N246	N	0.583405	0.326668	0.963524
	N247	N	0.408822	0.325333	0.034641
	N248	N	0.676734	0.972158	0.413862
	N249	N	0.679379	0.041210	0.588414
	N250	N	0.317097	0.972621	0.585580
	N251	N	0.318187	0.043395	0.411586
	N252	N	0.908582	0.472832	0.180367
	N253	N	0.083546	0.542039	0.178401
	N254	N	0.084177	0.471498	0.817679
	N255	N	0.910583	0.543107	0.818083
	N256	N	0.177408	0.922203	0.462143
	N257	N	0.178308	0.095292	0.532961
	N258	N	0.816855	0.095080	0.463971
	N259	N	0.819045	0.921642	0.534623
	N260	N	0.461572	0.187390	0.911910
	N261	N	0.532852	0.187210	0.086106
	N262	N	0.462760	0.827009	0.086607
	N263	N	0.532155	0.826718	0.913113
	N264	N	0.463147	0.920237	0.179633
	N265	N	0.533740	0.093565	0.178320
	N266	N	0.460930	0.093192	0.819917
	N267	N	0.531685	0.920158	0.820211
	N268	N	0.911505	0.187883	0.462937
	N269	N	0.085483	0.188706	0.532809
	N270	N	0.085031	0.827695	0.462375
	N271	N	0.911793	0.827617	0.533701
	N272	N	0.176295	0.470708	0.912003
	N273	N	0.176169	0.541783	0.084872
	N274	N	0.817907	0.471388	0.084467
	N275	N	0.817502	0.543187	0.911931
	O276	O	0.863963	0.838959	-0.142504
	H277	H	0.873488	0.837763	-0.146586
	H278	H	0.888739	0.852572	-0.131641
	O279	O	0.065743	0.117172	0.834025
	H280	H	0.062917	0.135255	0.827567
	H281	H	0.069464	0.122716	0.824817
	O282	O	0.707994	0.607593	0.708514
	H283	H	0.708616	0.606795	0.702686
	H284	H	0.724607	0.627885	0.715061
	O285	O	0.409921	0.287309	0.463439
	H286	H	0.410106	0.284717	0.445023
	H287	H	0.390475	0.292973	0.449484
	O288	O	1.017715	-0.176055	0.965696
	H289	H	1.024318	-0.183454	0.965372
	H290	H	1.017915	-0.170657	0.960969
	O291	O	0.692745	0.631969	0.531447
	H292	H	0.692621	0.630825	0.535561
	H293	H	0.707951	0.626886	0.544519
	O294	O	-0.055746	0.059459	0.232159
	H295	H	-0.052519	0.061967	0.237217
	H296	H	-0.058723	0.058524	0.232145
	O297	O	0.844933	0.198864	0.153646
	H298	H	0.836270	0.177364	0.137546
	H299	H	0.850727	0.204017	0.139631
	O300	O	0.024585	-0.052959	-0.020556
	H301	H	0.021314	-0.061833	-0.030572
	H302	H	0.043358	-0.040160	-0.015377
	O303	O	-0.016015	0.168746	-0.215038
	H304	H	-0.014733	0.174112	-0.217365
	H305	H	-0.032258	0.168677	-0.222441
	O306	O	1.050954	-0.020943	0.102407
	H307	H	1.062926	-0.023191	0.094067
	H308	H	1.054108	-0.032308	0.093988
	O309	O	0.497746	0.503227	0.383867
	H310	H	0.511435	0.504703	0.375713
	H311	H	0.499501	0.505358	0.386977
	O312	O	0.202944	0.025739	0.194638
	H313	H	0.193364	0.011961	0.203086
	H314	H	0.211047	0.009615	0.180943
	O315	O	0.500026	0.730062	0.516851
	H316	H	0.519452	0.733800	0.527167
	H317	H	0.512183	0.718847	0.533232
	O318	O	1.002448	1.095510	-0.029558
	H319	H	0.999278	1.099235	-0.044160
	H320	H	1.001580	1.094913	-0.019578
	O321	O	0.156811	1.174739	0.860269
	H322	H	0.142688	1.176430	0.875988
	H323	H	0.184101	1.199633	0.848025
	O324	O	0.796671	-0.193194	0.966023
	H325	H	0.807007	-0.182936	0.979960
	H326	H	0.790990	-0.209557	0.963943
	O327	O	0.704690	0.719579	0.630876
	H328	H	0.700899	0.713760	0.636969
	H329	H	0.706362	0.716624	0.632299
	O330	O	0.413406	0.709080	0.302242
	H331	H	0.417590	0.718166	0.334877
	H332	H	0.422397	0.711594	0.294138
	O333	O	0.443734	0.420020	0.280656
	H334	H	0.438737	0.432497	0.283428
	H335	H	0.452713	0.424517	0.273644
	O336	O	0.318410	0.688723	0.559724
	H337	H	0.343295	0.690979	0.558214
	H338	H	0.316192	0.699116	0.544185
	O339	O	0.338564	0.370396	0.554231
	H340	H	0.332587	0.353003	0.547272
	H341	H	0.342894	0.362730	0.547635
	O342	O	0.190988	1.196662	0.090737
	H343	H	0.182273	1.197192	0.111863
	H344	H	0.184023	1.189492	0.098387
	O345	O	0.689190	0.317787	0.686252
	H346	H	0.680319	0.321573	0.663781
	H347	H	0.671490	0.331154	0.674200
	O348	O	0.288565	0.474310	0.716189
	H349	H	0.270391	0.482945	0.735236
	H350	H	0.285585	0.494035	0.687011
	O351	O	-0.013893	0.051455	0.822577
	H352	H	-0.014530	0.068075	0.823131
	H353	H	-0.014368	0.032392	0.821410
	O354	O	0.959647	-0.116720	1.151962
	H355	H	0.940681	-0.104412	1.142526
	H356	H	0.946775	-0.118080	1.144537
	O357	O	0.360439	0.726709	0.384299
	H358	H	0.351845	0.743569	0.353057
	H359	H	0.335581	0.731251	0.380379
	O360	O	0.524485	0.520784	0.712609
	H361	H	0.529913	0.518277	0.699287
	H362	H	0.521354	0.500807	0.723876
	O363	O	0.717574	0.499619	0.315912
	H364	H	0.732012	0.498390	0.306170
	H365	H	0.717377	0.479378	0.309943
	O366	O	0.785017	0.043396	0.787129
	H367	H	0.786270	0.024534	0.806986
	H368	H	0.763582	0.040972	0.762415
	O369	O	0.163684	-0.049018	1.028680
	H370	H	0.159785	-0.044199	1.005080
	H371	H	0.171795	-0.053754	1.025656
	O372	O	-0.035937	0.909238	1.106599
	H373	H	-0.029290	0.919600	1.102525
	H374	H	-0.035389	0.898170	1.118055
	O375	O	0.793726	-0.022713	0.203016
	H376	H	0.781135	-0.013136	0.209305
	H377	H	0.796458	-0.009793	0.190951
	O378	O	0.603977	0.402593	0.555029
	H379	H	0.592783	0.401787	0.545407
	H380	H	0.588146	0.396573	0.571719
	O381	O	-0.216142	1.076706	0.054464
	H382	H	-0.205697	1.083752	0.033635
	H383	H	-0.214466	1.097830	0.041563
	O384	O	0.344008	0.503366	0.338968
	H385	H	0.349429	0.520228	0.332260
	H386	H	0.336124	0.516761	0.327154
	O387	O	0.144851	0.793699	0.789350
	H388	H	0.150806	0.824311	0.793663
	H389	H	0.168531	0.765219	0.754868
	O390	O	0.297229	1.305425	0.703562
	H391	H	0.300068	1.343391	0.704192
	H392	H	0.295851	1.313010	0.667516
	O393	O	0.953946	0.118225	0.019606
	H394	H	0.959156	0.127996	0.007356
	H395	H	0.957150	0.116058	0.019213
	O396	O	0.488078	0.322270	0.534094
	H397	H	0.481135	0.321038	0.544117
	H398	H	0.470154	0.318996	0.514048
	O399	O	0.534318	0.717270	0.713615
	H400	H	0.537354	0.710176	0.720491
	H401	H	0.525707	0.720828	0.734486
	O402	O	1.194109	0.112278	0.978719
	H403	H	1.182976	0.102366	0.990010
	H404	H	1.208764	0.139896	0.991757
	O405	O	0.565219	0.557655	0.566723
	H406	H	0.564819	0.562355	0.557175
	H407	H	0.576433	0.564715	0.563964
	O408	O	1.210927	0.791374	0.971918
	H409	H	1.230902	0.768891	0.950403
	H410	H	1.210877	0.795438	0.952545
	O411	O	0.794466	0.805259	0.201757
	H412	H	0.792917	0.836595	0.188326
	H413	H	0.803227	0.803692	0.195659
	O414	O	-0.212892	-0.041682	-0.047259
	H415	H	-0.211088	-0.047638	-0.041088
	H416	H	-0.208668	-0.035026	-0.035812
	O417	O	0.708234	0.305999	0.477235
	H418	H	0.671314	0.303561	0.495793
	H419	H	0.725765	0.285628	0.484945
	O420	O	1.213534	-0.029659	0.782173
	H421	H	1.229616	-0.024365	0.763037
	H422	H	1.200910	-0.014780	0.784951
	O423	O	1.018277	1.204212	0.188832
	H424	H	1.005806	1.201964	0.163300
	H425	H	0.999419	1.210592	0.201862
	O426	O	0.371038	0.506461	0.458337
	H427	H	0.377238	0.512086	0.441347
	H428	H	0.372655	0.498090	0.443325
	O429	O	0.524138	0.685688	0.470314
	H430	H	0.523247	0.685110	0.466701
	H431	H	0.540005	0.682103	0.467623
	O432	O	0.773672	0.228549	0.965105
	H433	H	0.759210	0.249038	0.950844
	H434	H	0.769605	0.235923	0.929471
	O435	O	0.531804	0.493780	0.503075
	H436	H	0.535471	0.500493	0.502808
	H437	H	0.542331	0.474717	0.493861
	O438	O	0.297847	0.359952	0.371266
	H439	H	0.306478	0.372211	0.363387
	H440	H	0.271714	0.349779	0.356103
	O441	O	0.578733	0.505138	0.530870
	H442	H	0.578754	0.504148	0.515034
	H443	H	0.591946	0.518335	0.523522
	O444	O	0.700799	0.301948	0.295381
	H445	H	0.692319	0.288872	0.285538
	H446	H	0.702000	0.301719	0.336073
	O447	O	0.793131	0.212956	0.793202
	H448	H	0.799811	0.174472	0.788010
	H449	H	0.779708	0.238725	0.767054
	O450	O	1.218832	0.269060	0.273826
	H451	H	1.225416	0.248034	0.271894
	H452	H	1.191185	0.273584	0.268596
	O453	O	0.667949	0.675638	0.312891
	H454	H	0.665877	0.674211	0.312742
	H455	H	0.666995	0.679853	0.306042
	O456	O	0.005235	0.833880	0.787254
	H457	H	0.030841	0.839769	0.803974
	H458	H	0.014781	0.804696	0.757944
	O459	O	0.472404	0.289996	0.711595
	H460	H	0.437626	0.300117	0.705323
	H461	H	0.467695	0.275494	0.740220
	O462	O	0.539215	0.298564	0.283463
	H463	H	0.543712	0.292676	0.271418
	H464	H	0.537531	0.299752	0.266864
	O465	O	0.271503	0.736863	0.731193
	H466	H	0.285962	0.716379	0.720496
	H467	H	0.287722	0.731407	0.716564
	O468	O	0.136479	0.805148	0.133260
	H469	H	0.126477	0.817391	0.117167
	H470	H	0.130527	0.810750	0.123890
	O471	O	0.649637	0.495119	0.449950
	H472	H	0.660934	0.489476	0.442007
	H473	H	0.648601	0.500474	0.443713
	O474	O	1.180598	0.745725	0.259457
	H475	H	1.206120	0.748241	0.253461
	H476	H	1.155214	0.761430	0.240504
	O477	O	0.287577	0.551363	0.555085
	H478	H	0.288918	0.533162	0.529820
	H479	H	0.296428	0.589219	0.541599
