data_Molecule from HDF5

_cell_length_a		15.965456
_cell_length_b		16.480026
_cell_length_c		16.296582
_cell_angle_alpha	90.110148
_cell_angle_beta	89.768757
_cell_angle_gamma	90.247167
_symmetry_space_group_name_H-M	'P 1'
_symmetry_Int_Tables_number		1

loop_
	_symmetry_equiv_pos_as_xyz
	x,y,z

loop_
	_atom_site_label
	_atom_site_type_symbol
	_atom_site_fract_x
	_atom_site_fract_y
	_atom_site_fract_z
	H0	H	0.396472	0.838602	0.714327
	H1	H	0.606161	0.159320	0.715097
	H2	H	0.605071	0.839618	0.273363
	H3	H	0.395403	0.157330	0.274700
	H4	H	0.717211	0.402502	0.832136
	H5	H	0.713008	0.596226	0.159727
	H6	H	0.289549	0.596390	0.831088
	H7	H	0.288448	0.404053	0.158492
	H8	H	0.837665	0.714288	0.391527
	H9	H	0.164629	0.717497	0.598913
	H10	H	0.837356	0.281290	0.598096
	H11	H	0.166108	0.283563	0.390639
	H12	H	0.836864	0.397141	0.711215
	H13	H	0.166109	0.601501	0.710013
	H14	H	0.835935	0.596897	0.282588
	H15	H	0.165929	0.398380	0.278414
	H16	H	0.397156	0.719311	0.833652
	H17	H	0.608769	0.721689	0.154950
	H18	H	0.610787	0.278080	0.834595
	H19	H	0.391130	0.276288	0.153260
	H20	H	0.716997	0.836855	0.393889
	H21	H	0.718021	0.160433	0.593945
	H22	H	0.283379	0.837597	0.594181
	H23	H	0.287853	0.161838	0.399207
	H24	H	0.894954	0.339687	0.215891
	H25	H	0.106094	0.658660	0.215761
	H26	H	0.106978	0.339996	0.774375
	H27	H	0.895754	0.657728	0.774537
	H28	H	0.215420	0.901669	0.331418
	H29	H	0.213826	0.096063	0.659466
	H30	H	0.788097	0.094921	0.330746
	H31	H	0.785526	0.901271	0.658298
	H32	H	0.339206	0.216936	0.888440
	H33	H	0.664225	0.218755	0.099897
	H34	H	0.338127	0.781274	0.098991
	H35	H	0.666749	0.784922	0.891687
	H36	H	0.336794	0.896004	0.211238
	H37	H	0.665465	0.101879	0.212099
	H38	H	0.336625	0.098594	0.782524
	H39	H	0.665728	0.898629	0.778699
	H40	H	0.894662	0.220130	0.334653
	H41	H	0.110536	0.222589	0.654229
	H42	H	0.107234	0.777725	0.334651
	H43	H	0.891834	0.776551	0.655093
	H44	H	0.219445	0.338115	0.894287
	H45	H	0.218285	0.661554	0.093688
	H46	H	0.781599	0.338954	0.097815
	H47	H	0.787635	0.661414	0.898450
	H48	H	0.403885	0.113037	0.583438
	H49	H	0.585454	0.886169	0.588323
	H50	H	0.583536	0.112539	0.397240
	H51	H	0.414275	0.882912	0.392013
	H52	H	0.594060	0.401824	0.114075
	H53	H	0.583866	0.598377	0.879701
	H54	H	0.417061	0.590353	0.108936
	H55	H	0.426064	0.413017	0.885181
	H56	H	0.115952	0.585956	0.416703
	H57	H	0.882790	0.593006	0.578165
	H58	H	0.117862	0.421636	0.589548
	H59	H	0.881213	0.402744	0.405834
	H60	H	0.124903	0.399826	0.590053
	H61	H	0.885328	0.580287	0.585397
	H62	H	0.120023	0.581465	0.394370
	H63	H	0.885434	0.408504	0.410314
	H64	H	0.412612	0.598406	0.111553
	H65	H	0.601422	0.597685	0.875017
	H66	H	0.590698	0.413932	0.108250
	H67	H	0.415288	0.392096	0.874669
	H68	H	0.591564	0.109059	0.412902
	H69	H	0.594763	0.885170	0.584046
	H70	H	0.407075	0.117259	0.597922
	H71	H	0.416728	0.889578	0.410558
	H72	H	0.917029	0.611021	0.086999
	H73	H	0.094244	0.383676	0.091325
	H74	H	0.096912	0.612769	0.906561
	H75	H	0.914524	0.385898	0.903929
	H76	H	0.092736	0.907154	0.611615
	H77	H	0.091890	0.095937	0.377572
	H78	H	0.912662	0.090706	0.609581
	H79	H	0.911390	0.915983	0.382310
	H80	H	0.620839	0.089715	0.903473
	H81	H	0.385331	0.089014	0.079063
	H82	H	0.618242	0.914473	0.084137
	H83	H	0.381282	0.899934	0.909984
	H84	H	0.621785	0.907073	0.087130
	H85	H	0.384711	0.083999	0.085106
	H86	H	0.620113	0.092058	0.907224
	H87	H	0.385866	0.913720	0.908929
	H88	H	0.913439	0.091865	0.609793
	H89	H	0.094396	0.089725	0.379450
	H90	H	0.086459	0.908107	0.609123
	H91	H	0.922766	0.896842	0.380361
	H92	H	0.095950	0.616548	0.896915
	H93	H	0.087852	0.386741	0.088474
	H94	H	0.903766	0.615024	0.086565
	H95	H	0.909176	0.384965	0.906379
	H96	H	0.418132	0.110574	0.589119
	H97	H	0.593014	0.882562	0.593764
	H98	H	0.601296	0.116568	0.399472
	H99	H	0.398273	0.881470	0.405071
	H100	H	0.581240	0.403786	0.108653
	H101	H	0.592703	0.583967	0.881802
	H102	H	0.408032	0.590629	0.111339
	H103	H	0.401326	0.413322	0.876415
	H104	H	0.124672	0.602248	0.403013
	H105	H	0.879713	0.591684	0.592706
	H106	H	0.115320	0.408242	0.570408
	H107	H	0.882802	0.410504	0.402935
	H108	H	0.911331	0.615792	0.097721
	H109	H	0.094573	0.385416	0.083692
	H110	H	0.088038	0.612014	0.901887
	H111	H	0.909818	0.384397	0.899831
	H112	H	0.088117	0.901798	0.611532
	H113	H	0.087235	0.091190	0.380791
	H114	H	0.912297	0.091447	0.610140
	H115	H	0.901034	0.897620	0.374134
	H116	H	0.619075	0.087382	0.906061
	H117	H	0.382003	0.091646	0.086463
	H118	H	0.618060	0.908913	0.078668
	H119	H	0.379691	0.906216	0.897944
	C120	C	0.377909	0.007549	0.619411
	C121	C	0.622644	0.991043	0.617833
	C122	C	0.623477	0.006973	0.371895
	C123	C	0.378699	0.990383	0.373066
	C124	C	0.622087	0.377163	0.003559
	C125	C	0.623120	0.622614	0.986330
	C126	C	0.381439	0.622267	0.003392
	C127	C	0.381412	0.376878	0.985610
	C128	C	0.010695	0.618956	0.375222
	C129	C	0.991719	0.619622	0.615727
	C130	C	0.010839	0.378273	0.615248
	C131	C	0.992302	0.377692	0.374625
	C132	C	0.878794	0.508038	0.119670
	C133	C	0.123180	0.491209	0.117618
	C134	C	0.124782	0.508091	0.871763
	C135	C	0.880496	0.491148	0.873788
	C136	C	0.121242	0.876729	0.503717
	C137	C	0.122405	0.121763	0.486399
	C138	C	0.881198	0.120707	0.503001
	C139	C	0.879468	0.874899	0.486019
	C140	C	0.511076	0.119586	0.874879
	C141	C	0.492247	0.120076	0.115380
	C142	C	0.510733	0.878498	0.115063
	C143	C	0.491942	0.878134	0.874497
	C144	C	0.377750	0.886689	0.675574
	C145	C	0.624118	0.111361	0.675390
	C146	C	0.623949	0.887045	0.313110
	C147	C	0.377367	0.110367	0.315041
	C148	C	0.679866	0.380587	0.881083
	C149	C	0.677346	0.618639	0.110008
	C150	C	0.326133	0.618315	0.880392
	C151	C	0.324452	0.380886	0.108697
	C152	C	0.886599	0.675467	0.374009
	C153	C	0.115540	0.678287	0.616960
	C154	C	0.886861	0.320142	0.616750
	C155	C	0.116533	0.321495	0.372792
	C156	C	0.886595	0.377787	0.673092
	C157	C	0.116327	0.620399	0.672259
	C158	C	0.885741	0.617317	0.319437
	C159	C	0.116482	0.378659	0.316667
	C160	C	0.379778	0.679602	0.881760
	C161	C	0.625149	0.680871	0.107629
	C162	C	0.626494	0.318845	0.882603
	C163	C	0.376303	0.317765	0.106111
	C164	C	0.679619	0.885673	0.373296
	C165	C	0.680029	0.112235	0.614960
	C166	C	0.321403	0.885935	0.615697
	C167	C	0.323931	0.112565	0.377022
	C168	C	0.876865	0.387557	0.176996
	C169	C	0.124436	0.611404	0.175785
	C170	C	0.125622	0.387604	0.813712
	C171	C	0.878927	0.610956	0.815555
	C172	C	0.178186	0.879818	0.380849
	C173	C	0.177681	0.118289	0.609705
	C174	C	0.824930	0.117192	0.380247
	C175	C	0.822317	0.879051	0.608878
	C176	C	0.387732	0.177467	0.872125
	C177	C	0.615247	0.179150	0.117730
	C178	C	0.387208	0.820033	0.116976
	C179	C	0.616875	0.822564	0.873176
	C180	C	0.386380	0.877696	0.172587
	C181	C	0.616006	0.120968	0.173715
	C182	C	0.386408	0.118756	0.819009
	C183	C	0.616375	0.879283	0.817061
	C184	C	0.877934	0.179509	0.382323
	C185	C	0.125970	0.181143	0.607057
	C186	C	0.124352	0.818141	0.382376
	C187	C	0.875357	0.817063	0.607223
	C188	C	0.181510	0.386756	0.873445
	C189	C	0.180667	0.612662	0.115220
	C190	C	0.820322	0.387133	0.117968
	C191	C	0.824584	0.612577	0.877030
	C192	C	0.402388	0.091908	0.596683
	C193	C	0.598212	0.906437	0.595237
	C194	C	0.599290	0.090886	0.396080
	C195	C	0.402563	0.906501	0.395841
	C196	C	0.596263	0.399917	0.088375
	C197	C	0.599571	0.600065	0.901153
	C198	C	0.405502	0.599879	0.088503
	C199	C	0.406885	0.399519	0.900849
	C200	C	0.097444	0.596433	0.398012
	C201	C	0.905315	0.595318	0.592198
	C202	C	0.097127	0.402879	0.590488
	C203	C	0.905412	0.400634	0.399111
	C204	C	0.903432	0.592135	0.096896
	C205	C	0.099024	0.407262	0.094554
	C206	C	0.100651	0.592000	0.894836
	C207	C	0.904123	0.406911	0.896816
	C208	C	0.096373	0.899205	0.588588
	C209	C	0.098384	0.098824	0.401432
	C210	C	0.905761	0.097917	0.587804
	C211	C	0.904402	0.897119	0.400970
	C212	C	0.597390	0.096514	0.898698
	C213	C	0.406340	0.095354	0.090774
	C214	C	0.596862	0.902889	0.090650
	C215	C	0.404948	0.900191	0.898690
	Zn216	Zn	0.501141	-0.000778	0.748876
	Zn217	Zn	0.500665	-0.001113	0.242757
	Zn218	Zn	0.750417	0.499733	-0.003956
	Zn219	Zn	0.253345	0.499550	-0.005598
	Zn220	Zn	0.000761	0.746343	0.495221
	Zn221	Zn	0.002072	0.250684	0.494476
	Zn222	Zn	0.001664	0.499458	0.742480
	Zn223	Zn	0.001035	0.498601	0.248474
	Zn224	Zn	0.502409	0.751193	-0.005654
	Zn225	Zn	0.501690	0.246718	-0.006442
	Zn226	Zn	0.752166	-0.001569	0.494826
	Zn227	Zn	0.249522	-0.000364	0.495186
	N228	N	0.412146	0.963362	0.678033
	N229	N	0.589121	0.034841	0.677156
	N230	N	0.589733	0.963552	0.312142
	N231	N	0.410936	0.033624	0.312518
	N232	N	0.677303	0.416293	0.957467
	N233	N	0.676527	0.583096	0.033561
	N234	N	0.327042	0.583262	0.956952
	N235	N	0.327341	0.416992	0.032733
	N236	N	0.965244	0.676848	0.407753
	N237	N	0.037150	0.677862	0.582494
	N238	N	0.965351	0.320108	0.581790
	N239	N	0.038192	0.320885	0.407898
	N240	N	0.964788	0.413148	0.672340
	N241	N	0.038224	0.584800	0.671857
	N242	N	0.964062	0.582892	0.319925
	N243	N	0.038025	0.412964	0.317698
	N244	N	0.413385	0.682185	0.959399
	N245	N	0.592179	0.683434	0.029877
	N246	N	0.591321	0.316675	0.959767
	N247	N	0.411015	0.315286	0.028601
	N248	N	0.679616	0.961322	0.409029
	N249	N	0.679346	0.036234	0.580036
	N250	N	0.321094	0.962241	0.581720
	N251	N	0.324713	0.036957	0.412454
	N252	N	0.912355	0.463708	0.178275
	N253	N	0.089449	0.535033	0.177352
	N254	N	0.090890	0.463957	0.812496
	N255	N	0.912842	0.534392	0.813288
	N256	N	0.176647	0.915388	0.457289
	N257	N	0.175646	0.082087	0.533730
	N258	N	0.826817	0.081198	0.456180
	N259	N	0.824501	0.914255	0.532392
	N260	N	0.466368	0.178203	0.906149
	N261	N	0.537271	0.178607	0.082325
	N262	N	0.465626	0.820221	0.081999
	N263	N	0.538452	0.821626	0.908450
	N264	N	0.464223	0.913555	0.171496
	N265	N	0.538376	0.084658	0.172279
	N266	N	0.464065	0.083433	0.820296
	N267	N	0.537780	0.913103	0.817930
	N268	N	0.912200	0.181777	0.459777
	N269	N	0.092622	0.183644	0.529201
	N270	N	0.089977	0.815796	0.459925
	N271	N	0.909935	0.814207	0.529819
	N272	N	0.181119	0.462514	0.908920
	N273	N	0.179975	0.537033	0.079564
	N274	N	0.821371	0.462887	0.082958
	N275	N	0.825504	0.536950	0.912637
	O276	O	0.105481	0.016751	0.098418
	H277	H	0.100190	0.027850	0.095399
	H278	H	0.122212	0.024664	0.096893
	O279	O	0.398801	0.430425	0.510209
	H280	H	0.397667	0.424443	0.500946
	H281	H	0.404890	0.431660	0.516392
	O282	O	0.922444	0.126839	-0.180813
	H283	H	0.915557	0.114549	-0.178976
	H284	H	0.914470	0.127673	-0.182952
	O285	O	-0.064712	0.817577	-0.109182
	H286	H	-0.053938	0.808529	-0.092228
	H287	H	-0.052108	0.807021	-0.107274
	O288	O	0.619827	0.502307	0.393355
	H289	H	0.620726	0.507707	0.397951
	H290	H	0.606040	0.493568	0.398722
	O291	O	0.449299	0.353492	0.440985
	H292	H	0.452085	0.358824	0.440214
	H293	H	0.450995	0.359845	0.446761
	O294	O	1.057798	1.002066	1.088532
	H295	H	1.063108	1.004443	1.073702
	H296	H	1.051874	1.011974	1.087195
	O297	O	0.009902	-0.116350	-0.122100
	H298	H	-0.008663	-0.117694	-0.113651
	H299	H	0.023038	-0.135684	-0.136831
	O300	O	0.556753	0.484657	0.530068
	H301	H	0.556061	0.495989	0.536309
	H302	H	0.550126	0.488960	0.530999
	O303	O	-0.047370	0.886759	0.914803
	H304	H	-0.041764	0.885017	0.918907
	H305	H	-0.050391	0.883386	0.914838
	O306	O	-0.027912	0.957762	-0.122705
	H307	H	-0.035711	0.942024	-0.123499
	H308	H	-0.036957	0.981429	-0.112395
	O309	O	0.828887	0.125196	-0.009621
	H310	H	0.821333	0.110387	-0.008827
	H311	H	0.823824	0.124226	-0.015503
	O312	O	0.181487	-0.115427	0.912167
	H313	H	0.176955	-0.113079	0.901000
	H314	H	0.192887	-0.108877	0.886611
	O315	O	0.487475	0.478588	0.405210
	H316	H	0.482477	0.475082	0.414584
	H317	H	0.497677	0.490011	0.404568
	O318	O	0.430220	0.485186	0.574871
	H319	H	0.430638	0.482938	0.570697
	H320	H	0.445372	0.480957	0.569111
	O321	O	0.550840	0.617766	0.581606
	H322	H	0.563483	0.613005	0.582777
	H323	H	0.539568	0.610748	0.597365
	O324	O	0.532305	0.647595	0.470361
	H325	H	0.524841	0.637217	0.459861
	H326	H	0.536227	0.641077	0.469928
	O327	O	-0.086515	1.032965	1.132190
	H328	H	-0.086262	1.024525	1.142078
	H329	H	-0.082447	1.034188	1.127013
	O330	O	0.454450	0.546727	0.538350
	H331	H	0.469819	0.545239	0.548899
	H332	H	0.452789	0.550252	0.538444
	O333	O	0.080221	0.869068	0.994467
	H334	H	0.098267	0.881679	0.984018
	H335	H	0.072570	0.878323	0.990014
	O336	O	0.938987	0.833653	1.034087
	H337	H	0.947943	0.829833	1.042970
	H338	H	0.940496	0.832316	1.042024
	O339	O	0.620809	0.540539	0.454228
	H340	H	0.614474	0.531184	0.438641
	H341	H	0.617251	0.560542	0.448352
	O342	O	1.013312	0.096867	0.179807
	H343	H	1.009540	0.097865	0.194228
	H344	H	1.004511	0.090760	0.172919
	O345	O	0.476313	0.602798	0.377024
	H346	H	0.477278	0.598799	0.366392
	H347	H	0.483531	0.597408	0.369768
	O348	O	0.952240	1.049116	1.008262
	H349	H	0.955707	1.039029	0.994109
	H350	H	0.953838	1.042382	1.000410
	O351	O	0.984080	0.981805	0.023622
	H352	H	0.997207	0.979433	0.030212
	H353	H	0.983602	0.987408	0.020333
	O354	O	0.479921	0.342707	0.528066
	H355	H	0.478972	0.343185	0.535064
	H356	H	0.479947	0.348821	0.521260
	O357	O	0.428605	0.504861	0.434327
	H358	H	0.433703	0.495781	0.434672
	H359	H	0.423157	0.506379	0.444673
	O360	O	-0.017946	0.060670	0.125454
	H361	H	-0.013397	0.073170	0.128227
	H362	H	-0.031957	0.049446	0.139201
	O363	O	0.599641	0.581344	0.606976
	H364	H	0.606145	0.576845	0.610169
	H365	H	0.595799	0.581520	0.609081
	O366	O	0.108917	0.127227	0.991896
	H367	H	0.101296	0.126098	0.998551
	H368	H	0.100822	0.131044	1.001163
	O369	O	0.530440	0.415398	0.654900
	H370	H	0.510047	0.409787	0.656768
	H371	H	0.510461	0.410889	0.654518
	O372	O	0.601638	0.463712	0.459558
	H373	H	0.592216	0.464855	0.462556
	H374	H	0.595273	0.456598	0.466964
	O375	O	0.384039	0.543312	0.467305
	H376	H	0.387524	0.554352	0.457857
	H377	H	0.393744	0.549363	0.466296
	O378	O	0.541458	0.537184	0.637166
	H379	H	0.539486	0.539302	0.637187
	H380	H	0.538402	0.550998	0.618954
	O381	O	0.518917	0.522171	0.428952
	H382	H	0.515773	0.516401	0.439296
	H383	H	0.520863	0.521833	0.429225
	O384	O	0.108616	1.156977	0.025369
	H385	H	0.096996	1.159081	0.020860
	H386	H	0.114204	1.162476	0.025567
	O387	O	1.023257	-0.077618	1.061433
	H388	H	1.031711	-0.067796	1.067867
	H389	H	1.023520	-0.071882	1.056714
	O390	O	-0.132966	1.046957	0.110289
	H391	H	-0.117644	1.033767	0.113538
	H392	H	-0.135863	1.038755	0.121177
	O393	O	0.968919	1.033528	-0.073823
	H394	H	0.982369	1.026253	-0.055725
	H395	H	0.950449	1.050644	-0.085783
	O396	O	1.040747	0.077214	0.942031
	H397	H	1.024342	0.087410	0.929153
	H398	H	1.043145	0.068136	0.945906
	O399	O	-0.004384	1.011964	0.875631
	H400	H	-0.005799	1.016002	0.869413
	H401	H	-0.006046	1.008855	0.885917
	O402	O	1.071413	1.124774	0.912786
	H403	H	1.081725	1.131999	0.914427
	H404	H	1.062628	1.128022	0.923886
	O405	O	0.365871	0.478634	0.527940
	H406	H	0.375337	0.486787	0.527538
	H407	H	0.362176	0.473045	0.524169
