data_Molecule from HDF5

_cell_length_a		16.344158
_cell_length_b		16.191911
_cell_length_c		15.936009
_cell_angle_alpha	89.296653
_cell_angle_beta	90.563917
_cell_angle_gamma	89.299538
_symmetry_space_group_name_H-M	'P 1'
_symmetry_Int_Tables_number		1

loop_
	_symmetry_equiv_pos_as_xyz
	x,y,z

loop_
	_atom_site_label
	_atom_site_type_symbol
	_atom_site_fract_x
	_atom_site_fract_y
	_atom_site_fract_z
	H0	H	0.419106	0.834673	0.710014
	H1	H	0.602248	0.167310	0.704985
	H2	H	0.605583	0.833507	0.291658
	H3	H	0.410246	0.166064	0.282437
	H4	H	0.720573	0.400245	0.829494
	H5	H	0.722987	0.597320	0.161652
	H6	H	0.289995	0.603661	0.829802
	H7	H	0.296813	0.399920	0.163270
	H8	H	0.846137	0.720210	0.391221
	H9	H	0.172402	0.712285	0.597381
	H10	H	0.843741	0.285688	0.593937
	H11	H	0.170287	0.282491	0.398771
	H12	H	0.842524	0.404550	0.707272
	H13	H	0.173358	0.589250	0.708446
	H14	H	0.844538	0.601153	0.280370
	H15	H	0.173543	0.404846	0.288630
	H16	H	0.404946	0.717479	0.830074
	H17	H	0.603241	0.704839	0.165249
	H18	H	0.604440	0.288483	0.828904
	H19	H	0.413773	0.289317	0.164054
	H20	H	0.725663	0.837049	0.399595
	H21	H	0.725026	0.164080	0.598057
	H22	H	0.295494	0.835938	0.602298
	H23	H	0.288753	0.163551	0.391914
	H24	H	0.916227	0.335412	0.209713
	H25	H	0.100709	0.667813	0.204423
	H26	H	0.102055	0.332840	0.791765
	H27	H	0.909543	0.666035	0.780012
	H28	H	0.223589	0.899669	0.330345
	H29	H	0.222644	0.097583	0.662689
	H30	H	0.789517	0.104261	0.331090
	H31	H	0.800404	0.899597	0.663650
	H32	H	0.344910	0.218633	0.894722
	H33	H	0.671738	0.213797	0.099397
	H34	H	0.343271	0.785933	0.097279
	H35	H	0.669752	0.781745	0.899534
	H36	H	0.343748	0.905087	0.210675
	H37	H	0.673696	0.090500	0.210041
	H38	H	0.345340	0.101942	0.780283
	H39	H	0.673774	0.904888	0.791062
	H40	H	0.907301	0.214055	0.328361
	H41	H	0.105952	0.207644	0.663819
	H42	H	0.104997	0.790098	0.327663
	H43	H	0.915290	0.786448	0.662563
	H44	H	0.223940	0.336682	0.898278
	H45	H	0.221892	0.664359	0.096560
	H46	H	0.794523	0.336135	0.098828
	H47	H	0.786987	0.663707	0.888214
	H48	H	0.408829	0.118003	0.582633
	H49	H	0.606802	0.882151	0.593472
	H50	H	0.593975	0.116144	0.405395
	H51	H	0.417685	0.884505	0.412126
	H52	H	0.598566	0.401632	0.116062
	H53	H	0.594991	0.592940	0.876589
	H54	H	0.406071	0.588981	0.118000
	H55	H	0.410849	0.408700	0.874542
	H56	H	0.124466	0.602459	0.415006
	H57	H	0.892002	0.597624	0.580763
	H58	H	0.126853	0.397686	0.595074
	H59	H	0.888128	0.406663	0.393326
	H60	H	0.122946	0.400989	0.589469
	H61	H	0.893282	0.590902	0.587101
	H62	H	0.122435	0.581371	0.402608
	H63	H	0.889922	0.400333	0.408526
	H64	H	0.418126	0.586219	0.114044
	H65	H	0.597138	0.594326	0.875344
	H66	H	0.608452	0.405315	0.118335
	H67	H	0.411849	0.412967	0.876874
	H68	H	0.604998	0.118753	0.409882
	H69	H	0.609440	0.881623	0.592965
	H70	H	0.411708	0.120898	0.591186
	H71	H	0.408586	0.880494	0.408085
	H72	H	0.901799	0.623009	0.089662
	H73	H	0.105962	0.381307	0.093523
	H74	H	0.089967	0.615978	0.900764
	H75	H	0.918553	0.384593	0.906414
	H76	H	0.110104	0.902670	0.619230
	H77	H	0.096499	0.091624	0.376418
	H78	H	0.916055	0.094954	0.618085
	H79	H	0.907543	0.908017	0.372189
	H80	H	0.621454	0.083038	0.910847
	H81	H	0.391455	0.099887	0.087520
	H82	H	0.631793	0.888574	0.107351
	H83	H	0.389752	0.907771	0.902699
	H84	H	0.622127	0.895024	0.077487
	H85	H	0.392947	0.094031	0.088152
	H86	H	0.629736	0.096704	0.890938
	H87	H	0.391545	0.907529	0.904226
	H88	H	0.913229	0.090597	0.617187
	H89	H	0.099978	0.093452	0.376225
	H90	H	0.101808	0.911083	0.613486
	H91	H	0.913844	0.920102	0.379320
	H92	H	0.105239	0.618194	0.911244
	H93	H	0.104022	0.382806	0.092669
	H94	H	0.922271	0.617230	0.090254
	H95	H	0.906894	0.382520	0.909317
	H96	H	0.417385	0.116513	0.585487
	H97	H	0.607793	0.881593	0.595546
	H98	H	0.601973	0.121108	0.397602
	H99	H	0.417903	0.881023	0.402293
	H100	H	0.600726	0.412918	0.113289
	H101	H	0.596389	0.591267	0.876253
	H102	H	0.415601	0.598883	0.118741
	H103	H	0.415572	0.410616	0.876122
	H104	H	0.131351	0.601929	0.390718
	H105	H	0.889041	0.598870	0.589042
	H106	H	0.124714	0.404007	0.595919
	H107	H	0.894316	0.415980	0.405333
	H108	H	0.911141	0.614841	0.072260
	H109	H	0.105466	0.381919	0.091503
	H110	H	0.105665	0.623459	0.893171
	H111	H	0.910730	0.378576	0.896924
	H112	H	0.099188	0.900616	0.615923
	H113	H	0.100495	0.090090	0.375592
	H114	H	0.918147	0.090223	0.615226
	H115	H	0.922057	0.906854	0.375971
	H116	H	0.626779	0.108631	0.913230
	H117	H	0.390317	0.096508	0.092908
	H118	H	0.622121	0.917540	0.098615
	H119	H	0.390859	0.909850	0.903161
	C120	C	0.386930	0.009567	0.618203
	C121	C	0.633250	0.991291	0.620443
	C122	C	0.629781	0.009247	0.377422
	C123	C	0.385673	0.991331	0.375827
	C124	C	0.629781	0.378206	0.005183
	C125	C	0.626040	0.619705	0.986886
	C126	C	0.383724	0.622622	0.006289
	C127	C	0.386877	0.381030	0.987052
	C128	C	0.017844	0.624508	0.372866
	C129	C	0.999960	0.621539	0.616479
	C130	C	0.016156	0.374760	0.620356
	C131	C	0.999319	0.379128	0.375185
	C132	C	0.885956	0.509490	0.115763
	C133	C	0.130771	0.491896	0.118849
	C134	C	0.128223	0.509296	0.875782
	C135	C	0.883764	0.491119	0.872826
	C136	C	0.131082	0.877340	0.505368
	C137	C	0.127686	0.119114	0.486945
	C138	C	0.885904	0.122001	0.505919
	C139	C	0.888675	0.881098	0.486754
	C140	C	0.517374	0.124902	0.874723
	C141	C	0.500117	0.122166	0.118798
	C142	C	0.516290	0.875483	0.121371
	C143	C	0.499483	0.879739	0.876704
	C144	C	0.394856	0.884593	0.673870
	C145	C	0.625741	0.116925	0.670957
	C146	C	0.626619	0.883942	0.326395
	C147	C	0.388650	0.115991	0.319381
	C148	C	0.683153	0.380278	0.879260
	C149	C	0.684007	0.616935	0.112171
	C150	C	0.327646	0.623212	0.880198
	C151	C	0.334148	0.381228	0.113263
	C152	C	0.894810	0.681490	0.372406
	C153	C	0.123609	0.674435	0.616399
	C154	C	0.892623	0.322556	0.615204
	C155	C	0.122221	0.322119	0.378490
	C156	C	0.891923	0.381831	0.671583
	C157	C	0.124010	0.613432	0.671625
	C158	C	0.894007	0.622443	0.317082
	C159	C	0.123582	0.382916	0.323714
	C160	C	0.384810	0.679702	0.880153
	C161	C	0.624288	0.670665	0.113960
	C162	C	0.625183	0.324996	0.879042
	C163	C	0.392088	0.325860	0.113697
	C164	C	0.686654	0.885814	0.380092
	C165	C	0.686887	0.115295	0.617728
	C166	C	0.333427	0.885377	0.620180
	C167	C	0.328286	0.114826	0.373863
	C168	C	0.892783	0.384986	0.172657
	C169	C	0.124097	0.617368	0.169980
	C170	C	0.123841	0.383300	0.825956
	C171	C	0.887553	0.616029	0.816744
	C172	C	0.185978	0.879499	0.379954
	C173	C	0.183862	0.116503	0.613001
	C174	C	0.828660	0.122530	0.380395
	C175	C	0.836789	0.880773	0.613329
	C176	C	0.393901	0.180650	0.875111
	C177	C	0.623148	0.175825	0.118387
	C178	C	0.392409	0.823211	0.117976
	C179	C	0.621598	0.821604	0.879796
	C180	C	0.392590	0.882593	0.174102
	C181	C	0.624316	0.114317	0.173173
	C182	C	0.394096	0.122405	0.818305
	C183	C	0.623754	0.883089	0.825871
	C184	C	0.887112	0.177452	0.379265
	C185	C	0.125983	0.171574	0.613503
	C186	C	0.127125	0.824980	0.378628
	C187	C	0.893983	0.824643	0.612840
	C188	C	0.184511	0.385200	0.879123
	C189	C	0.184436	0.615566	0.116409
	C190	C	0.832726	0.385176	0.117026
	C191	C	0.826800	0.614996	0.870583
	C192	C	0.406805	0.096050	0.593689
	C193	C	0.613815	0.904393	0.600045
	C194	C	0.607094	0.096416	0.398238
	C195	C	0.408017	0.904533	0.400231
	C196	C	0.608834	0.399945	0.093129
	C197	C	0.602969	0.598913	0.898814
	C198	C	0.406516	0.598538	0.093974
	C199	C	0.406847	0.404045	0.898728
	C200	C	0.103773	0.601980	0.395973
	C201	C	0.913713	0.601845	0.592741
	C202	C	0.102559	0.394826	0.599635
	C203	C	0.913084	0.401205	0.396116
	C204	C	0.905869	0.596004	0.091268
	C205	C	0.111012	0.404640	0.098500
	C206	C	0.106527	0.596586	0.895696
	C207	C	0.905505	0.404386	0.897203
	C208	C	0.109891	0.898301	0.593331
	C209	C	0.105332	0.097951	0.398913
	C210	C	0.908849	0.098832	0.593855
	C211	C	0.908379	0.904877	0.398636
	C212	C	0.603628	0.102617	0.898186
	C213	C	0.413984	0.102631	0.096255
	C214	C	0.602765	0.894473	0.100538
	C215	C	0.413094	0.901977	0.897268
	Zn216	Zn	0.509441	0.001818	0.747022
	Zn217	Zn	0.508375	-0.000686	0.249371
	Zn218	Zn	0.755514	0.500148	-0.005298
	Zn219	Zn	0.257835	0.500659	-0.004005
	Zn220	Zn	0.009038	0.752560	0.494767
	Zn221	Zn	0.007340	0.247281	0.496271
	Zn222	Zn	0.007451	0.499193	0.746633
	Zn223	Zn	0.008854	0.501626	0.245759
	Zn224	Zn	0.506081	0.748211	-0.002310
	Zn225	Zn	0.508072	0.252993	-0.003331
	Zn226	Zn	0.759824	0.000717	0.497410
	Zn227	Zn	0.256484	-0.000578	0.496709
	N228	N	0.427242	0.962684	0.672907
	N229	N	0.593391	0.038859	0.673218
	N230	N	0.592085	0.961868	0.324473
	N231	N	0.423474	0.038064	0.320410
	N232	N	0.686305	0.412665	0.958813
	N233	N	0.685272	0.585919	0.032004
	N234	N	0.326800	0.588405	0.959494
	N235	N	0.330883	0.414949	0.033527
	N236	N	0.972562	0.682917	0.406623
	N237	N	0.045494	0.679520	0.582668
	N238	N	0.971048	0.317562	0.584459
	N239	N	0.043940	0.319545	0.409566
	N240	N	0.969797	0.413399	0.674943
	N241	N	0.046224	0.581465	0.671766
	N242	N	0.971326	0.587827	0.317007
	N243	N	0.046184	0.417726	0.321564
	N244	N	0.418987	0.679676	0.959581
	N245	N	0.588796	0.672529	0.035161
	N246	N	0.592748	0.323674	0.958451
	N247	N	0.424263	0.325617	0.034082
	N248	N	0.688553	0.964886	0.411186
	N249	N	0.691820	0.036181	0.587192
	N250	N	0.328385	0.963970	0.585992
	N251	N	0.326501	0.036374	0.408345
	N252	N	0.925409	0.463094	0.171797
	N253	N	0.091634	0.539434	0.171820
	N254	N	0.089448	0.461449	0.823744
	N255	N	0.922456	0.538135	0.818149
	N256	N	0.188651	0.911337	0.459781
	N257	N	0.185109	0.084624	0.533207
	N258	N	0.827576	0.088916	0.460174
	N259	N	0.833236	0.915234	0.533883
	N260	N	0.471597	0.182267	0.909351
	N261	N	0.544880	0.181060	0.085515
	N262	N	0.470377	0.818475	0.086081
	N263	N	0.543032	0.819353	0.910426
	N264	N	0.470502	0.914353	0.176529
	N265	N	0.546898	0.081618	0.173632
	N266	N	0.471942	0.088629	0.817642
	N267	N	0.546734	0.918583	0.823607
	N268	N	0.922086	0.177220	0.458344
	N269	N	0.091529	0.173360	0.534163
	N270	N	0.093818	0.823390	0.457704
	N271	N	0.925412	0.824731	0.533200
	N272	N	0.187447	0.464614	0.909289
	N273	N	0.188870	0.536473	0.085255
	N274	N	0.828363	0.463535	0.082380
	N275	N	0.824108	0.536341	0.904716
	O276	O	0.005487	0.006214	-0.000483
	H277	H	0.007115	0.010978	-0.005747
	H278	H	-0.005710	0.018636	-0.002202
	O279	O	0.507913	0.516841	0.451510
	H280	H	0.500991	0.525854	0.452914
	H281	H	0.509406	0.514053	0.451977
	O282	O	0.394547	0.583972	0.482259
	H283	H	0.381696	0.586400	0.479441
	H284	H	0.401878	0.582964	0.481759
	O285	O	0.998458	0.055650	0.947679
	H286	H	1.004044	0.055005	0.944632
	H287	H	0.995156	0.053247	0.937745
	O288	O	0.912976	0.114742	-0.011545
	H289	H	0.918129	0.111862	-0.023619
	H290	H	0.912152	0.140304	-0.008043
	O291	O	0.389313	0.579359	0.465779
	H292	H	0.390528	0.579552	0.468906
	H293	H	0.404296	0.587819	0.457425
	O294	O	0.976520	0.033707	0.947399
	H295	H	0.988730	0.035552	0.935972
	H296	H	0.984262	0.036648	0.942878
	O297	O	0.019724	0.075864	-0.011544
	H298	H	0.025621	0.079181	-0.010483
	H299	H	0.018454	0.084887	-0.010010
	O300	O	0.546023	0.473740	0.468764
	H301	H	0.544784	0.468013	0.467174
	H302	H	0.540021	0.468664	0.457237
	O303	O	0.530860	0.409220	0.460561
	H304	H	0.524207	0.416983	0.473611
	H305	H	0.535572	0.409380	0.456048
	O306	O	0.995317	0.057634	-0.096132
	H307	H	0.988199	0.061150	-0.089003
	H308	H	1.002054	0.047861	-0.102063
	O309	O	0.046102	-0.018704	1.035324
	H310	H	0.039987	-0.016053	1.035606
	H311	H	0.039805	-0.017860	1.045253
	O312	O	1.049962	1.029192	0.972086
	H313	H	1.050267	1.027435	0.970857
	H314	H	1.051519	1.027515	0.968078
	O315	O	0.450376	0.576896	0.460808
	H316	H	0.446452	0.576459	0.453793
	H317	H	0.440400	0.584745	0.444619
	O318	O	0.639517	0.498152	0.535856
	H319	H	0.624474	0.515224	0.532719
	H320	H	0.663063	0.492122	0.551003
	O321	O	0.087169	0.976950	0.977616
	H322	H	0.084619	0.974151	0.979092
	H323	H	0.088245	0.980457	0.976395
	O324	O	0.471089	0.466537	0.544045
	H325	H	0.462961	0.467287	0.554227
	H326	H	0.474390	0.472169	0.544306
	O327	O	0.551155	0.404260	0.416532
	H328	H	0.549052	0.405592	0.411686
	H329	H	0.557142	0.389663	0.411398
	O330	O	0.423880	0.593378	0.486102
	H331	H	0.411603	0.604643	0.484968
	H332	H	0.430028	0.588700	0.482757
	O333	O	0.492672	0.442459	0.507780
	H334	H	0.481746	0.445132	0.510844
	H335	H	0.494377	0.434709	0.520337
	O336	O	0.530467	0.526172	0.569413
	H337	H	0.529242	0.525951	0.569803
	H338	H	0.541477	0.525794	0.568922
	O339	O	1.016853	0.989298	-0.015203
	H340	H	1.016358	0.982500	-0.019393
	H341	H	1.010769	0.978495	-0.012622
	O342	O	0.454147	0.475574	0.483540
	H343	H	0.456798	0.479048	0.482617
	H344	H	0.443885	0.480971	0.489148
	O345	O	0.504929	0.570657	0.539619
	H346	H	0.504644	0.568666	0.529574
	H347	H	0.504263	0.573358	0.528020
	O348	O	0.006268	-0.050668	0.026515
	H349	H	0.003357	-0.057945	0.031539
	H350	H	0.003130	-0.049000	0.028055
	O351	O	-0.452091	1.447935	1.487250
	H352	H	-0.457034	1.438241	1.482005
	H353	H	-0.443906	1.437889	1.481240
	O354	O	0.573932	0.422029	0.425287
	H355	H	0.572681	0.430456	0.427291
	H356	H	0.593589	0.409375	0.427715
	O357	O	0.029424	1.020578	0.902523
	H358	H	0.026400	1.015942	0.899607
	H359	H	0.034783	1.016780	0.906450
