data_Molecule from HDF5

_cell_length_a		16.195892
_cell_length_b		16.137967
_cell_length_c		16.394473
_cell_angle_alpha	89.705426
_cell_angle_beta	89.865312
_cell_angle_gamma	90.486738
_symmetry_space_group_name_H-M	'P 1'
_symmetry_Int_Tables_number		1

loop_
	_symmetry_equiv_pos_as_xyz
	x,y,z

loop_
	_atom_site_label
	_atom_site_type_symbol
	_atom_site_fract_x
	_atom_site_fract_y
	_atom_site_fract_z
	H0	H	0.400329	0.832643	0.711845
	H1	H	0.611363	0.157335	0.711944
	H2	H	0.609184	0.831960	0.276677
	H3	H	0.406293	0.158422	0.274260
	H4	H	0.724287	0.393887	0.832132
	H5	H	0.723828	0.597352	0.155341
	H6	H	0.291062	0.595890	0.831835
	H7	H	0.285119	0.390422	0.155132
	H8	H	0.841699	0.710187	0.394690
	H9	H	0.170218	0.710327	0.588905
	H10	H	0.842086	0.280140	0.593391
	H11	H	0.169433	0.284471	0.393386
	H12	H	0.843692	0.391566	0.712398
	H13	H	0.168352	0.602140	0.709192
	H14	H	0.843243	0.601124	0.274812
	H15	H	0.167734	0.395840	0.274965
	H16	H	0.403179	0.713151	0.833829
	H17	H	0.604676	0.711658	0.156201
	H18	H	0.607820	0.277199	0.832233
	H19	H	0.402719	0.274945	0.155957
	H20	H	0.719681	0.830769	0.395738
	H21	H	0.722603	0.159158	0.593004
	H22	H	0.288132	0.832926	0.594305
	H23	H	0.293911	0.161576	0.392115
	H24	H	0.899606	0.334391	0.213340
	H25	H	0.110253	0.659588	0.208700
	H26	H	0.109018	0.334738	0.774427
	H27	H	0.904081	0.660467	0.776327
	H28	H	0.222377	0.899220	0.331314
	H29	H	0.225677	0.099679	0.654852
	H30	H	0.787580	0.099262	0.333041
	H31	H	0.787014	0.890621	0.654547
	H32	H	0.342295	0.209371	0.892361
	H33	H	0.668562	0.213232	0.095568
	H34	H	0.340693	0.778843	0.094354
	H35	H	0.669453	0.783214	0.898032
	H36	H	0.344149	0.888224	0.215794
	H37	H	0.668480	0.099811	0.211091
	H38	H	0.344174	0.097551	0.774592
	H39	H	0.666905	0.889850	0.775275
	H40	H	0.905759	0.213835	0.331411
	H41	H	0.108865	0.215331	0.654594
	H42	H	0.106614	0.781314	0.331122
	H43	H	0.904255	0.777236	0.655024
	H44	H	0.219802	0.332083	0.893001
	H45	H	0.223785	0.659194	0.092820
	H46	H	0.788739	0.332341	0.094276
	H47	H	0.792284	0.660853	0.894408
	H48	H	0.426880	0.109354	0.583336
	H49	H	0.604069	0.875320	0.586325
	H50	H	0.595950	0.110286	0.403710
	H51	H	0.416590	0.881898	0.409462
	H52	H	0.596288	0.407703	0.106018
	H53	H	0.600954	0.595436	0.876560
	H54	H	0.415270	0.583069	0.108324
	H55	H	0.415702	0.394471	0.877046
	H56	H	0.127581	0.597250	0.389306
	H57	H	0.885509	0.588536	0.593076
	H58	H	0.123102	0.411285	0.589936
	H59	H	0.887355	0.402119	0.400266
	H60	H	0.123167	0.403314	0.583757
	H61	H	0.889252	0.590527	0.579254
	H62	H	0.121378	0.594856	0.411265
	H63	H	0.889980	0.405241	0.407360
	H64	H	0.415195	0.587921	0.110423
	H65	H	0.602536	0.583636	0.879732
	H66	H	0.592639	0.403413	0.106556
	H67	H	0.404682	0.405409	0.877104
	H68	H	0.599648	0.113015	0.401603
	H69	H	0.589943	0.877507	0.593576
	H70	H	0.410724	0.113346	0.579310
	H71	H	0.410117	0.877813	0.404343
	H72	H	0.915915	0.610487	0.077566
	H73	H	0.096951	0.377684	0.087791
	H74	H	0.093356	0.611792	0.901490
	H75	H	0.917995	0.379469	0.898261
	H76	H	0.096894	0.906169	0.607137
	H77	H	0.111113	0.091642	0.375240
	H78	H	0.917572	0.099045	0.611393
	H79	H	0.903742	0.900405	0.374724
	H80	H	0.619534	0.084818	0.909478
	H81	H	0.389656	0.082338	0.088480
	H82	H	0.620075	0.907818	0.085848
	H83	H	0.387333	0.907276	0.896234
	H84	H	0.624181	0.903161	0.091437
	H85	H	0.390215	0.084407	0.082919
	H86	H	0.620610	0.078889	0.898537
	H87	H	0.386077	0.897893	0.902448
	H88	H	0.903122	0.082902	0.610290
	H89	H	0.096270	0.080114	0.381927
	H90	H	0.095648	0.904559	0.608047
	H91	H	0.914489	0.913963	0.381764
	H92	H	0.101424	0.613572	0.904651
	H93	H	0.089204	0.379760	0.087549
	H94	H	0.909042	0.616345	0.086892
	H95	H	0.916073	0.381826	0.905629
	H96	H	0.416075	0.116584	0.595018
	H97	H	0.591413	0.881246	0.577682
	H98	H	0.595565	0.111959	0.398886
	H99	H	0.417967	0.879989	0.401358
	H100	H	0.597297	0.403094	0.109220
	H101	H	0.592467	0.588767	0.880969
	H102	H	0.410666	0.584780	0.110445
	H103	H	0.418675	0.408095	0.883992
	H104	H	0.118900	0.576178	0.396474
	H105	H	0.891275	0.577289	0.585222
	H106	H	0.119373	0.411822	0.580579
	H107	H	0.889892	0.410011	0.400102
	H108	H	0.921576	0.613630	0.089423
	H109	H	0.094376	0.380644	0.080568
	H110	H	0.099875	0.615706	0.896626
	H111	H	0.911026	0.377908	0.902111
	H112	H	0.097689	0.904689	0.608742
	H113	H	0.092049	0.099186	0.377546
	H114	H	0.922929	0.078876	0.602858
	H115	H	0.921163	0.897476	0.378907
	H116	H	0.624518	0.090891	0.900133
	H117	H	0.390329	0.079140	0.084577
	H118	H	0.622440	0.899979	0.084339
	H119	H	0.391586	0.907384	0.907636
	C120	C	0.385108	0.005075	0.615745
	C121	C	0.626985	0.986224	0.615547
	C122	C	0.627549	0.003873	0.372324
	C123	C	0.385676	0.987746	0.373174
	C124	C	0.626876	0.374038	0.001337
	C125	C	0.628226	0.618632	0.985818
	C126	C	0.384337	0.615684	0.002818
	C127	C	0.382215	0.371408	0.985938
	C128	C	0.014663	0.618854	0.370543
	C129	C	0.996820	0.617232	0.614168
	C130	C	0.014665	0.375983	0.615439
	C131	C	0.996621	0.376769	0.372163
	C132	C	0.883866	0.505699	0.115484
	C133	C	0.125772	0.487491	0.114517
	C134	C	0.127796	0.505544	0.871202
	C135	C	0.885240	0.488085	0.872385
	C136	C	0.126921	0.876025	0.500941
	C137	C	0.129813	0.120585	0.484852
	C138	C	0.884950	0.117236	0.501481
	C139	C	0.883171	0.873055	0.485064
	C140	C	0.514382	0.115450	0.872192
	C141	C	0.497516	0.114386	0.114932
	C142	C	0.514135	0.872685	0.117346
	C143	C	0.496350	0.874008	0.872846
	C144	C	0.382569	0.881677	0.672695
	C145	C	0.628829	0.109009	0.672610
	C146	C	0.627935	0.880843	0.315633
	C147	C	0.386900	0.110263	0.314084
	C148	C	0.685221	0.374415	0.880417
	C149	C	0.685097	0.617244	0.107220
	C150	C	0.328635	0.615607	0.880650
	C151	C	0.324358	0.371314	0.107067
	C152	C	0.890875	0.673570	0.373738
	C153	C	0.120482	0.673621	0.610547
	C154	C	0.891602	0.317968	0.613858
	C155	C	0.120217	0.321520	0.373308
	C156	C	0.892192	0.373627	0.673071
	C157	C	0.119572	0.619826	0.670462
	C158	C	0.891894	0.619181	0.314050
	C159	C	0.119363	0.376949	0.314482
	C160	C	0.384589	0.674041	0.881643
	C161	C	0.625667	0.674105	0.107752
	C162	C	0.626887	0.316606	0.880221
	C163	C	0.382874	0.313556	0.107306
	C164	C	0.683175	0.880434	0.374597
	C165	C	0.684372	0.109905	0.613472
	C166	C	0.326326	0.882065	0.614654
	C167	C	0.330981	0.111858	0.372703
	C168	C	0.881843	0.382974	0.173756
	C169	C	0.127814	0.610660	0.170153
	C170	C	0.127579	0.383244	0.813821
	C171	C	0.885390	0.611387	0.815191
	C172	C	0.183994	0.878472	0.379747
	C173	C	0.187185	0.120116	0.606339
	C174	C	0.827243	0.117751	0.380628
	C175	C	0.825906	0.872298	0.606257
	C176	C	0.391471	0.171696	0.873016
	C177	C	0.619837	0.173950	0.114809
	C178	C	0.390279	0.816085	0.115490
	C179	C	0.619908	0.819338	0.876446
	C180	C	0.391793	0.870660	0.175534
	C181	C	0.619819	0.117295	0.172347
	C182	C	0.392442	0.116474	0.814023
	C183	C	0.618794	0.872621	0.815520
	C184	C	0.886084	0.174937	0.380073
	C185	C	0.128892	0.177519	0.606291
	C186	C	0.126121	0.819827	0.379459
	C187	C	0.884298	0.815636	0.606645
	C188	C	0.182833	0.381849	0.872872
	C189	C	0.184610	0.610455	0.112693
	C190	C	0.826574	0.381880	0.114527
	C191	C	0.829661	0.611619	0.873742
	C192	C	0.410654	0.090760	0.592674
	C193	C	0.602325	0.900415	0.592672
	C194	C	0.604121	0.089551	0.394707
	C195	C	0.408253	0.902240	0.397834
	C196	C	0.602536	0.397962	0.085627
	C197	C	0.605386	0.595913	0.901065
	C198	C	0.406989	0.591900	0.087668
	C199	C	0.406079	0.395461	0.901310
	C200	C	0.100324	0.596179	0.392465
	C201	C	0.910930	0.592712	0.592293
	C202	C	0.099827	0.401385	0.591750
	C203	C	0.911302	0.399410	0.395620
	C204	C	0.908406	0.591425	0.091700
	C205	C	0.100755	0.401932	0.091914
	C206	C	0.105054	0.591388	0.894084
	C207	C	0.908206	0.401979	0.895254
	C208	C	0.103492	0.898463	0.585955
	C209	C	0.106704	0.097253	0.400330
	C210	C	0.907992	0.093730	0.586183
	C211	C	0.906473	0.897007	0.400292
	C212	C	0.599455	0.091730	0.895604
	C213	C	0.412235	0.089275	0.092066
	C214	C	0.599924	0.896713	0.094131
	C215	C	0.410774	0.897407	0.895395
	Zn216	Zn	0.506090	-0.005247	0.743669
	Zn217	Zn	0.506527	-0.005415	0.244223
	Zn218	Zn	0.757430	0.496245	-0.006564
	Zn219	Zn	0.254366	0.495251	-0.006384
	Zn220	Zn	0.005452	0.745070	0.493341
	Zn221	Zn	0.006268	0.247988	0.493512
	Zn222	Zn	0.006063	0.497943	0.743728
	Zn223	Zn	0.005193	0.497253	0.243275
	Zn224	Zn	0.504163	0.746250	-0.005652
	Zn225	Zn	0.505670	0.242578	-0.006318
	Zn226	Zn	0.754927	-0.004438	0.494086
	Zn227	Zn	0.257873	-0.002360	0.493737
	N228	N	0.418272	0.959260	0.673741
	N229	N	0.593963	0.030863	0.674033
	N230	N	0.593968	0.958624	0.313897
	N231	N	0.419921	0.032048	0.313996
	N232	N	0.685130	0.409401	0.956805
	N233	N	0.686561	0.583399	0.030438
	N234	N	0.328298	0.579801	0.957041
	N235	N	0.323837	0.406481	0.030489
	N236	N	0.968161	0.673635	0.408090
	N237	N	0.043197	0.671911	0.576085
	N238	N	0.968750	0.319277	0.578753
	N239	N	0.043180	0.321361	0.408648
	N240	N	0.969788	0.408843	0.674457
	N241	N	0.041661	0.585259	0.672768
	N242	N	0.969679	0.585903	0.311793
	N243	N	0.041568	0.410679	0.313382
	N244	N	0.418571	0.674213	0.958432
	N245	N	0.590832	0.675127	0.031290
	N246	N	0.591449	0.315930	0.956477
	N247	N	0.418047	0.313396	0.030885
	N248	N	0.682956	0.957910	0.409274
	N249	N	0.683440	0.032554	0.578865
	N250	N	0.327702	0.959883	0.580085
	N251	N	0.330128	0.034709	0.408816
	N252	N	0.916621	0.460973	0.174447
	N253	N	0.091896	0.533118	0.171564
	N254	N	0.093894	0.461162	0.812817
	N255	N	0.919163	0.533408	0.814008
	N256	N	0.184370	0.912756	0.456227
	N257	N	0.188197	0.085710	0.529827
	N258	N	0.826360	0.082496	0.457178
	N259	N	0.825119	0.907372	0.529637
	N260	N	0.468276	0.171338	0.908445
	N261	N	0.542776	0.172238	0.079747
	N262	N	0.467269	0.817290	0.080065
	N263	N	0.542765	0.820081	0.911387
	N264	N	0.469800	0.904902	0.176879
	N265	N	0.542870	0.080796	0.172533
	N266	N	0.469853	0.082146	0.813287
	N267	N	0.540816	0.905881	0.812944
	N268	N	0.921429	0.174601	0.456273
	N269	N	0.094033	0.177957	0.529833
	N270	N	0.091299	0.818164	0.456011
	N271	N	0.919242	0.815858	0.530228
	N272	N	0.183041	0.458954	0.908039
	N273	N	0.183469	0.532838	0.078765
	N274	N	0.827797	0.459145	0.078908
	N275	N	0.829497	0.533947	0.908532
	O276	O	0.110558	-0.051745	0.036457
	H277	H	0.109691	-0.053186	0.028803
	H278	H	0.108893	-0.051697	0.034904
	O279	O	0.639332	0.587049	0.643639
	H280	H	0.645032	0.581357	0.637841
	H281	H	0.645235	0.585156	0.634736
	O282	O	1.102304	0.149186	0.118193
	H283	H	1.108689	0.140969	0.115618
	H284	H	1.107099	0.150669	0.109406
	O285	O	-0.057067	0.893563	0.003977
	H286	H	-0.060771	0.884958	0.007674
	H287	H	-0.051764	0.890306	0.000749
	O288	O	0.551135	0.442439	0.428877
	H289	H	0.542238	0.453475	0.427475
	H290	H	0.549154	0.424321	0.434220
	O291	O	0.555511	0.543423	0.623365
	H292	H	0.561638	0.554464	0.627128
	H293	H	0.568970	0.556624	0.616399
	O294	O	0.623805	1.297567	0.690465
	H295	H	0.620591	1.299517	0.690409
	H296	H	0.622103	1.293007	0.700743
	O297	O	0.471971	-0.544058	-0.391906
	H298	H	0.470319	-0.542965	-0.407326
	H299	H	0.453874	-0.533455	-0.390033
	O300	O	0.395660	0.491992	0.462165
	H301	H	0.395492	0.494727	0.454023
	H302	H	0.385361	0.490634	0.466006
	O303	O	-0.119097	1.182965	0.912339
	H304	H	-0.106415	1.175191	0.927359
	H305	H	-0.119971	1.190310	0.921199
	O306	O	-0.517912	1.358643	0.582100
	H307	H	-0.519053	1.345517	0.595638
	H308	H	-0.537548	1.360537	0.580231
	O309	O	1.123682	0.128986	-0.077683
	H310	H	1.109814	0.122702	-0.070093
	H311	H	1.132665	0.137302	-0.067698
	O312	O	-0.024627	0.040643	1.118784
	H313	H	-0.011625	0.058474	1.105765
	H314	H	-0.022783	0.033624	1.133752
	O315	O	-0.047011	1.068722	0.957387
	H316	H	-0.049175	1.053234	0.948128
	H317	H	-0.056173	1.068230	0.960854
	O318	O	0.396368	0.613237	0.480750
	H319	H	0.396314	0.603117	0.476063
	H320	H	0.400486	0.622131	0.482902
	O321	O	0.521701	0.502797	0.404294
	H322	H	0.526684	0.504781	0.393359
	H323	H	0.531130	0.506616	0.416740
	O324	O	0.479544	0.542846	0.332413
	H325	H	0.486071	0.537726	0.324488
	H326	H	0.470605	0.555953	0.347262
	O327	O	0.003494	0.901333	1.029322
	H328	H	-0.009134	0.902417	1.027227
	H329	H	-0.002495	0.907826	1.035188
	O330	O	0.562131	0.529725	0.584401
	H331	H	0.550022	0.521255	0.596719
	H332	H	0.560567	0.521909	0.578646
	O333	O	-0.063834	0.926579	1.057628
	H334	H	-0.056328	0.933856	1.052407
	H335	H	-0.066584	0.935361	1.058109
	O336	O	0.885097	0.960605	0.834046
	H337	H	0.902942	0.975392	0.834995
	H338	H	0.868292	0.965473	0.833004
	O339	O	0.585266	0.380272	0.443710
	H340	H	0.588855	0.374614	0.443855
	H341	H	0.573409	0.380248	0.448063
	O342	O	1.063420	-0.112032	0.037159
	H343	H	1.065768	-0.129080	0.045049
	H344	H	1.044331	-0.111977	0.037463
	O345	O	0.683884	0.450013	0.355901
	H346	H	0.673470	0.435595	0.367448
	H347	H	0.692036	0.432809	0.336008
	O348	O	1.006673	0.980545	1.030399
	H349	H	1.000350	0.982381	1.036637
	H350	H	1.007741	0.970928	1.024885
	O351	O	1.030855	0.945920	0.068196
	H352	H	1.023654	0.951175	0.063103
	H353	H	1.030622	0.941008	0.065890
	O354	O	0.513627	0.474975	0.540189
	H355	H	0.510092	0.468398	0.544505
	H356	H	0.510351	0.485587	0.545770
	O357	O	0.552709	0.595101	0.591767
	H358	H	0.576920	0.588202	0.594416
	H359	H	0.564171	0.604011	0.602271
	O360	O	0.075731	0.117533	0.077969
	H361	H	0.099090	0.118208	0.085032
	H362	H	0.083384	0.125223	0.069761
	O363	O	0.464826	0.337261	0.520362
	H364	H	0.471194	0.338324	0.526716
	H365	H	0.469924	0.343618	0.520228
	O366	O	0.132296	-0.142114	0.946288
	H367	H	0.136330	-0.157581	0.959006
	H368	H	0.129444	-0.134126	0.948018
	O369	O	0.336803	0.480628	0.385302
	H370	H	0.318173	0.476263	0.388073
	H371	H	0.335558	0.495843	0.391781
	O372	O	0.509572	0.662178	0.466435
	H373	H	0.523078	0.655952	0.462347
	H374	H	0.503050	0.668137	0.474546
	O375	O	0.338963	0.380574	0.451742
	H376	H	0.334504	0.375427	0.435842
	H377	H	0.348678	0.377179	0.446500
	O378	O	0.514290	0.537150	0.607637
	H379	H	0.504537	0.529361	0.590232
	H380	H	0.518021	0.527243	0.614362
	O381	O	0.619651	0.460750	0.363072
	H382	H	0.621827	0.469874	0.358726
	H383	H	0.630871	0.455716	0.354269
	O384	O	0.085405	1.058790	0.088704
	H385	H	0.078969	1.055083	0.098846
	H386	H	0.097204	1.046487	0.092237
	O387	O	0.891632	0.012209	1.106067
	H388	H	0.890710	0.022402	1.116037
	H389	H	0.898791	0.009220	1.098204
	O390	O	-0.142971	1.002658	-0.141146
	H391	H	-0.141289	1.019249	-0.131418
	H392	H	-0.145338	1.007361	-0.148142
	O393	O	1.098563	1.066548	-0.039367
	H394	H	1.100075	1.071901	-0.045534
	H395	H	1.096578	1.067548	-0.037878
	O396	O	1.079906	-0.021773	0.837783
	H397	H	1.070092	-0.020372	0.848427
	H398	H	1.077270	-0.019631	0.829809
	O399	O	0.060023	0.962175	0.826391
	H400	H	0.059779	0.959735	0.831262
	H401	H	0.044079	0.967926	0.810837
	O402	O	0.858751	0.930086	1.137455
	H403	H	0.858800	0.937658	1.135419
	H404	H	0.857904	0.933714	1.136465
	O405	O	0.419221	0.557264	0.518279
	H406	H	0.421389	0.565444	0.520115
	H407	H	0.421170	0.552487	0.524175
