data_Molecule from HDF5

_cell_length_a		16.554332
_cell_length_b		16.499166
_cell_length_c		16.635447
_cell_angle_alpha	89.948578
_cell_angle_beta	90.017624
_cell_angle_gamma	90.120833
_symmetry_space_group_name_H-M	'P 1'
_symmetry_Int_Tables_number		1

loop_
	_symmetry_equiv_pos_as_xyz
	x,y,z

loop_
	_atom_site_label
	_atom_site_type_symbol
	_atom_site_fract_x
	_atom_site_fract_y
	_atom_site_fract_z
	H0	H	0.388602	0.844321	0.700483
	H1	H	0.600009	0.157024	0.698262
	H2	H	0.598370	0.840105	0.259663
	H3	H	0.392903	0.155877	0.256092
	H4	H	0.716892	0.395088	0.821217
	H5	H	0.717413	0.606055	0.132305
	H6	H	0.274338	0.602915	0.821047
	H7	H	0.275032	0.394499	0.134809
	H8	H	0.836961	0.717384	0.376856
	H9	H	0.154924	0.718141	0.578937
	H10	H	0.836889	0.281530	0.579137
	H11	H	0.152143	0.279983	0.374406
	H12	H	0.837717	0.397020	0.696194
	H13	H	0.155169	0.601725	0.695954
	H14	H	0.838396	0.604382	0.257868
	H15	H	0.151769	0.395393	0.256287
	H16	H	0.389754	0.721238	0.821465
	H17	H	0.598772	0.720373	0.133558
	H18	H	0.601735	0.276342	0.822746
	H19	H	0.393531	0.280118	0.135708
	H20	H	0.713578	0.840544	0.376553
	H21	H	0.715492	0.157578	0.581632
	H22	H	0.275019	0.842629	0.581598
	H23	H	0.276539	0.156205	0.373032
	H24	H	0.890883	0.343250	0.197022
	H25	H	0.099944	0.658087	0.197125
	H26	H	0.097480	0.340949	0.759942
	H27	H	0.893443	0.658336	0.757833
	H28	H	0.215215	0.895954	0.320225
	H29	H	0.218916	0.105271	0.632158
	H30	H	0.774637	0.102845	0.321371
	H31	H	0.777735	0.897943	0.635849
	H32	H	0.338136	0.219390	0.875705
	H33	H	0.653111	0.220744	0.082527
	H34	H	0.338557	0.778378	0.080623
	H35	H	0.652290	0.780303	0.874163
	H36	H	0.339525	0.892292	0.199870
	H37	H	0.652931	0.104581	0.199060
	H38	H	0.339261	0.105363	0.756661
	H39	H	0.650449	0.894586	0.755432
	H40	H	0.892277	0.219586	0.320858
	H41	H	0.101127	0.221673	0.633444
	H42	H	0.099074	0.779393	0.320450
	H43	H	0.896188	0.783068	0.636898
	H44	H	0.213459	0.340508	0.876642
	H45	H	0.215508	0.657601	0.080423
	H46	H	0.776662	0.343005	0.078842
	H47	H	0.776800	0.659184	0.873541
	H48	H	0.402710	0.112758	0.563539
	H49	H	0.579693	0.888108	0.569195
	H50	H	0.582372	0.110152	0.389735
	H51	H	0.407884	0.885025	0.384377
	H52	H	0.591440	0.411394	0.090722
	H53	H	0.585314	0.580165	0.868317
	H54	H	0.403426	0.593703	0.091459
	H55	H	0.399310	0.411344	0.865081
	H56	H	0.107797	0.593672	0.392121
	H57	H	0.883741	0.591155	0.566852
	H58	H	0.109373	0.408986	0.570032
	H59	H	0.882466	0.409363	0.387202
	H60	H	0.108970	0.408764	0.567676
	H61	H	0.884000	0.587480	0.569283
	H62	H	0.106562	0.583798	0.388012
	H63	H	0.883178	0.410896	0.388542
	H64	H	0.402770	0.582878	0.087250
	H65	H	0.576375	0.595114	0.866096
	H66	H	0.583444	0.415503	0.086605
	H67	H	0.408797	0.413676	0.868504
	H68	H	0.589710	0.112553	0.387848
	H69	H	0.585305	0.888977	0.562296
	H70	H	0.409072	0.113706	0.571576
	H71	H	0.407837	0.887670	0.390153
	H72	H	0.906803	0.613532	0.067427
	H73	H	0.083918	0.386788	0.070377
	H74	H	0.086256	0.614129	0.882796
	H75	H	0.913869	0.391373	0.890609
	H76	H	0.086423	0.916270	0.587528
	H77	H	0.082807	0.085165	0.368806
	H78	H	0.909338	0.087178	0.588309
	H79	H	0.903327	0.906858	0.364359
	H80	H	0.608633	0.090772	0.890815
	H81	H	0.384064	0.090382	0.066240
	H82	H	0.607193	0.912242	0.070176
	H83	H	0.382049	0.905019	0.892888
	H84	H	0.609012	0.907778	0.068039
	H85	H	0.385593	0.086184	0.067039
	H86	H	0.605223	0.084415	0.890327
	H87	H	0.385855	0.917479	0.890941
	H88	H	0.906644	0.093789	0.591485
	H89	H	0.081385	0.092282	0.365901
	H90	H	0.080638	0.907573	0.587782
	H91	H	0.902372	0.909380	0.365098
	H92	H	0.081642	0.610760	0.888773
	H93	H	0.083688	0.388046	0.066852
	H94	H	0.906465	0.614379	0.066764
	H95	H	0.897841	0.386644	0.893214
	H96	H	0.412752	0.109681	0.562853
	H97	H	0.587650	0.885363	0.569738
	H98	H	0.584075	0.112628	0.383018
	H99	H	0.402319	0.884829	0.387751
	H100	H	0.583506	0.406054	0.089511
	H101	H	0.593316	0.593741	0.860896
	H102	H	0.412534	0.588444	0.087085
	H103	H	0.407178	0.404003	0.865558
	H104	H	0.110627	0.591678	0.381805
	H105	H	0.882336	0.590959	0.571293
	H106	H	0.108587	0.411502	0.568547
	H107	H	0.882867	0.411468	0.386888
	H108	H	0.906363	0.614594	0.067715
	H109	H	0.086833	0.386195	0.068369
	H110	H	0.089629	0.612514	0.890185
	H111	H	0.905270	0.384404	0.878510
	H112	H	0.090667	0.907298	0.591586
	H113	H	0.088827	0.088954	0.364971
	H114	H	0.901706	0.087771	0.590533
	H115	H	0.905018	0.908810	0.366106
	H116	H	0.608812	0.086908	0.885064
	H117	H	0.383234	0.088169	0.069814
	H118	H	0.606411	0.911209	0.065034
	H119	H	0.380114	0.910497	0.881639
	C120	C	0.374920	0.008288	0.598346
	C121	C	0.615969	0.991567	0.598837
	C122	C	0.616753	0.007240	0.356344
	C123	C	0.375006	0.990104	0.355788
	C124	C	0.617892	0.378389	-0.014135
	C125	C	0.616707	0.621738	0.968449
	C126	C	0.374030	0.620606	-0.014681
	C127	C	0.374359	0.378158	0.970169
	C128	C	0.003937	0.621038	0.356830
	C129	C	0.988081	0.621153	0.599769
	C130	C	0.004362	0.378637	0.599244
	C131	C	0.986913	0.379236	0.356394
	C132	C	0.874609	0.509694	0.098581
	C133	C	0.116924	0.491502	0.099307
	C134	C	0.116799	0.507904	0.856720
	C135	C	0.874635	0.492126	0.856212
	C136	C	0.117401	0.878295	0.485510
	C137	C	0.117678	0.121658	0.469119
	C138	C	0.874497	0.120791	0.486270
	C139	C	0.873902	0.878155	0.469725
	C140	C	0.504093	0.120237	0.857239
	C141	C	0.487984	0.120378	0.099397
	C142	C	0.503683	0.878071	0.099271
	C143	C	0.486147	0.878810	0.856013
	C144	C	0.371264	0.890704	0.659317
	C145	C	0.618302	0.109873	0.658358
	C146	C	0.617368	0.887823	0.298805
	C147	C	0.373864	0.108856	0.296309
	C148	C	0.677303	0.376566	0.868307
	C149	C	0.676833	0.624254	0.085793
	C150	C	0.314258	0.622023	0.867993
	C151	C	0.315346	0.376594	0.088104
	C152	C	0.884850	0.678949	0.356911
	C153	C	0.107469	0.679106	0.598790
	C154	C	0.884928	0.320416	0.598898
	C155	C	0.105160	0.319810	0.355204
	C156	C	0.885080	0.378070	0.656953
	C157	C	0.107542	0.621172	0.656755
	C158	C	0.885492	0.622647	0.297906
	C159	C	0.104876	0.377091	0.296633
	C160	C	0.371718	0.680691	0.868060
	C161	C	0.617850	0.680924	0.086342
	C162	C	0.620169	0.317394	0.869168
	C163	C	0.374099	0.319518	0.088351
	C164	C	0.674625	0.887957	0.356956
	C165	C	0.675712	0.110139	0.600297
	C166	C	0.314995	0.889993	0.600281
	C167	C	0.316364	0.109126	0.354330
	C168	C	0.872867	0.390804	0.157115
	C169	C	0.118476	0.610577	0.157464
	C170	C	0.117109	0.388313	0.798897
	C171	C	0.874010	0.611021	0.797128
	C172	C	0.175911	0.877246	0.367477
	C173	C	0.178422	0.124031	0.585960
	C174	C	0.814775	0.121965	0.368404
	C175	C	0.816823	0.878669	0.588616
	C176	C	0.385362	0.179462	0.856513
	C177	C	0.605947	0.180673	0.101133
	C178	C	0.385660	0.818159	0.100144
	C179	C	0.604597	0.819463	0.854564
	C180	C	0.386128	0.874742	0.159232
	C181	C	0.605934	0.122621	0.158822
	C182	C	0.385819	0.123043	0.797298
	C183	C	0.603876	0.876451	0.795860
	C184	C	0.873383	0.179710	0.367814
	C185	C	0.119972	0.181513	0.586613
	C186	C	0.118029	0.819145	0.367571
	C187	C	0.875538	0.821462	0.589054
	C188	C	0.174437	0.388379	0.856979
	C189	C	0.175953	0.610329	0.099505
	C190	C	0.815938	0.390470	0.098592
	C191	C	0.816294	0.611493	0.854851
	C192	C	0.400674	0.090726	0.573286
	C193	C	0.591044	0.908839	0.574187
	C194	C	0.592410	0.090329	0.380057
	C195	C	0.399317	0.907477	0.380286
	C196	C	0.593156	0.403808	0.067782
	C197	C	0.592075	0.596871	0.886453
	C198	C	0.399099	0.595571	0.067310
	C199	C	0.398355	0.402467	0.887998
	C200	C	0.086731	0.596739	0.380543
	C201	C	0.905014	0.596902	0.576023
	C202	C	0.087316	0.402840	0.575746
	C203	C	0.904358	0.403612	0.380652
	C204	C	0.899398	0.592620	0.074311
	C205	C	0.091993	0.408474	0.075313
	C206	C	0.092692	0.590877	0.880114
	C207	C	0.898729	0.409284	0.880595
	C208	C	0.093024	0.903230	0.567491
	C209	C	0.091843	0.096151	0.387705
	C210	C	0.898948	0.096746	0.568427
	C211	C	0.896899	0.901353	0.386804
	C212	C	0.586167	0.094896	0.881859
	C213	C	0.405655	0.095300	0.074762
	C214	C	0.586182	0.903512	0.074872
	C215	C	0.404161	0.903980	0.881257
	Zn216	Zn	0.495018	0.000444	0.727666
	Zn217	Zn	0.496239	-0.001307	0.227677
	Zn218	Zn	0.746305	0.501107	-0.023259
	Zn219	Zn	0.245043	0.499202	-0.022076
	Zn220	Zn	-0.004275	0.749369	0.478130
	Zn221	Zn	-0.003947	0.249985	0.477776
	Zn222	Zn	-0.003736	0.499612	0.728099
	Zn223	Zn	-0.004492	0.500754	0.227379
	Zn224	Zn	0.495006	0.750309	-0.022781
	Zn225	Zn	0.495820	0.249381	-0.021884
	Zn226	Zn	0.744649	-0.000737	0.478469
	Zn227	Zn	0.246620	0.000030	0.477478
	N228	N	0.407673	0.965453	0.658293
	N229	N	0.581822	0.035146	0.657479
	N230	N	0.582345	0.963158	0.298187
	N231	N	0.409345	0.033853	0.296950
	N232	N	0.676086	0.413589	0.942128
	N233	N	0.676165	0.587935	0.011510
	N234	N	0.315647	0.585429	0.942083
	N235	N	0.315082	0.412286	0.013484
	N236	N	0.959638	0.678207	0.392879
	N237	N	0.032062	0.679142	0.564077
	N238	N	0.960218	0.320231	0.564153
	N239	N	0.030740	0.320876	0.391665
	N240	N	0.960456	0.413255	0.657621
	N241	N	0.032029	0.586455	0.657804
	N242	N	0.960762	0.587642	0.297415
	N243	N	0.030267	0.413305	0.297240
	N244	N	0.408121	0.679844	0.942211
	N245	N	0.581343	0.679679	0.012292
	N246	N	0.583834	0.318435	0.943287
	N247	N	0.410041	0.320371	0.014126
	N248	N	0.674704	0.963424	0.391827
	N249	N	0.674395	0.035506	0.563894
	N250	N	0.317231	0.964247	0.563004
	N251	N	0.316818	0.034280	0.390564
	N252	N	0.908422	0.466073	0.157288
	N253	N	0.082727	0.535398	0.157795
	N254	N	0.082239	0.463808	0.798370
	N255	N	0.909411	0.535785	0.797566
	N256	N	0.175883	0.913083	0.441942
	N257	N	0.177130	0.087816	0.511746
	N258	N	0.815266	0.085995	0.442984
	N259	N	0.815421	0.912810	0.513293
	N260	N	0.459807	0.178014	0.892993
	N261	N	0.531529	0.179318	0.064751
	N262	N	0.459871	0.820248	0.063560
	N263	N	0.530396	0.820663	0.891292
	N264	N	0.460744	0.911140	0.158806
	N265	N	0.531454	0.085911	0.158032
	N266	N	0.460674	0.087080	0.797518
	N267	N	0.529094	0.912371	0.796491
	N268	N	0.909534	0.179312	0.442161
	N269	N	0.082932	0.180277	0.512828
	N270	N	0.082493	0.819356	0.442174
	N271	N	0.909971	0.820570	0.513995
	N272	N	0.174612	0.463669	0.891896
	N273	N	0.175191	0.534992	0.064292
	N274	N	0.816604	0.465669	0.063073
	N275	N	0.816403	0.536440	0.890665
	O276	O	0.183710	1.182913	-0.212106
	H277	H	0.178401	1.167967	-0.180094
	H278	H	0.151622	1.160448	-0.208990
	O279	O	0.442911	0.671640	0.275145
	H280	H	0.440399	0.682816	0.282232
	H281	H	0.447174	0.679295	0.264309
	O282	O	0.960988	-0.217448	1.197786
	H283	H	0.963106	-0.230516	1.218047
	H284	H	0.947538	-0.208086	1.203540
	O285	O	0.711092	0.465300	0.256273
	H286	H	0.706259	0.481160	0.267717
	H287	H	0.735102	0.458543	0.233072
	O288	O	0.374238	0.586605	0.518295
	H289	H	0.381116	0.596294	0.512356
	H290	H	0.371155	0.593687	0.522800
	O291	O	0.423698	0.443180	0.448264
	H292	H	0.420074	0.453312	0.452647
	H293	H	0.439560	0.447823	0.438135
	O294	O	0.855203	0.049648	0.889439
	H295	H	0.850945	0.050279	0.901915
	H296	H	0.853991	0.043610	0.894338
	O297	O	0.295368	0.697811	0.273194
	H298	H	0.282091	0.714631	0.295852
	H299	H	0.318112	0.710752	0.269093
	O300	O	-0.691605	0.309590	0.293614
	H301	H	-0.672632	0.310920	0.324327
	H302	H	-0.688351	0.341578	0.298977
	O303	O	0.033522	0.204184	1.190374
	H304	H	0.032010	0.220498	1.211538
	H305	H	0.042199	0.195888	1.174665
	O306	O	0.995832	-0.006645	0.772024
	H307	H	1.007508	-0.036456	0.762944
	H308	H	0.999943	-0.000357	0.789996
	O309	O	0.455411	0.278805	0.402742
	H310	H	0.452836	0.277524	0.398183
	H311	H	0.474615	0.284618	0.404606
	O312	O	0.318047	0.684368	0.665444
	H313	H	0.347638	0.682704	0.647750
	H314	H	0.328739	0.652939	0.653662
	O315	O	0.623706	1.623314	0.276606
	H316	H	0.603936	1.618378	0.284970
	H317	H	0.630208	1.604053	0.293135
	O318	O	0.662689	0.327460	0.670378
	H319	H	0.648651	0.331260	0.658828
	H320	H	0.642089	0.348182	0.661744
	O321	O	0.504578	0.581934	0.622272
	H322	H	0.492148	0.574841	0.632836
	H323	H	0.502177	0.578147	0.627294
	O324	O	0.885084	0.826903	-0.072604
	H325	H	0.881844	0.823213	-0.079990
	H326	H	0.892360	0.831361	-0.072244
	O327	O	-0.115706	0.023235	0.983239
	H328	H	-0.119585	0.027195	0.980617
	H329	H	-0.118796	0.031904	0.988375
	O330	O	0.468404	0.396017	0.500366
	H331	H	0.469225	0.390351	0.490310
	H332	H	0.478166	0.389103	0.494213
	O333	O	0.070041	0.023572	0.871084
	H334	H	0.063027	0.022069	0.882483
	H335	H	0.063881	0.028502	0.865592
	O336	O	1.003436	-0.012396	0.835812
	H337	H	1.004633	-0.021957	0.841224
	H338	H	0.993329	-0.013324	0.834473
	O339	O	0.781995	-0.122889	1.019746
	H340	H	0.786288	-0.130065	1.013483
	H341	H	0.767819	-0.120276	1.012837
	O342	O	-0.347035	0.371575	0.431249
	H343	H	-0.338233	0.351944	0.435518
	H344	H	-0.335593	0.375107	0.420000
	O345	O	0.165324	1.042872	0.835243
	H346	H	0.169661	1.038106	0.836806
	H347	H	0.157357	1.035831	0.837999
	O348	O	0.513945	0.544376	0.623614
	H349	H	0.533744	0.543915	0.611981
	H350	H	0.504119	0.546276	0.629687
	O351	O	0.808128	1.187333	0.166257
	H352	H	0.835251	1.179195	0.153296
	H353	H	0.799798	1.188264	0.181371
	O354	O	0.013821	0.131037	1.018304
	H355	H	0.001420	0.130739	0.997958
	H356	H	0.022829	0.128465	1.019241
	O357	O	1.502010	1.637123	0.399565
	H358	H	1.499481	1.622837	0.403994
	H359	H	1.508449	1.639066	0.396311
	O360	O	0.279751	0.293511	0.501584
	H361	H	0.260657	0.294239	0.501661
	H362	H	0.282262	0.296791	0.497710
	O363	O	-0.212425	-0.203286	0.180475
	H364	H	-0.229141	-0.226809	0.178249
	H365	H	-0.192940	-0.188172	0.174269
	O366	O	0.717227	0.722632	0.521132
	H367	H	0.714628	0.722792	0.564536
	H368	H	0.744372	0.752380	0.527374
	O369	O	1.190033	0.018782	-0.042089
	H370	H	1.189122	0.026345	-0.046088
	H371	H	1.189646	0.034652	-0.035483
	O372	O	1.034398	0.776511	-0.244756
	H373	H	1.057939	0.763507	-0.249014
	H374	H	1.051649	0.759421	-0.256397
	O375	O	1.190673	0.215106	0.002010
	H376	H	1.194335	0.218583	0.032992
	H377	H	1.199821	0.223208	0.011292
	O378	O	0.044701	1.028407	1.073954
	H379	H	0.050121	1.037811	1.053531
	H380	H	0.054761	1.040444	1.081066
	O381	O	0.576839	0.384281	1.558224
	H382	H	0.564295	0.389330	1.557146
	H383	H	0.568782	0.372744	1.557042
	O384	O	1.178145	-0.186739	1.165471
	H385	H	1.163049	-0.173282	1.161742
	H386	H	1.178080	-0.182041	1.145102
	O387	O	1.206826	0.794978	-0.048825
	H388	H	1.213710	0.783755	-0.052618
	H389	H	1.201817	0.797775	-0.058899
	O390	O	0.538019	0.310354	0.269846
	H391	H	0.540090	0.295456	0.258514
	H392	H	0.533872	0.329684	0.266815
	O393	O	0.277223	0.504615	0.639312
	H394	H	0.266831	0.479796	0.656357
	H395	H	0.277990	0.488577	0.641585
	O396	O	0.413428	1.495064	1.619225
	H397	H	0.413471	1.489630	1.623285
	H398	H	0.409308	1.492979	1.606533
	O399	O	-0.027370	-0.212134	1.014935
	H400	H	-0.038009	-0.216923	1.010687
	H401	H	-0.046233	-0.214419	1.041697
	O402	O	0.467247	0.286918	0.697697
	H403	H	0.456762	0.264636	0.706721
	H404	H	0.446934	0.285854	0.691745
	O405	O	0.954705	0.220261	0.754184
	H406	H	0.954888	0.249159	0.723186
	H407	H	0.955947	0.197899	0.752888
	O408	O	-0.297837	-0.328872	-0.313889
	H409	H	-0.320086	-0.354176	-0.307225
	H410	H	-0.272877	-0.309992	-0.292087
	O411	O	0.202970	0.791291	0.772681
	H412	H	0.204345	0.816522	0.792432
	H413	H	0.236161	0.766246	0.744244
	O414	O	0.798356	0.158959	0.992828
	H415	H	0.797277	0.170305	1.003601
	H416	H	0.792045	0.156424	0.982275
	O417	O	0.668264	0.472338	0.505243
	H418	H	0.669981	0.477024	0.503435
	H419	H	0.669306	0.477136	0.507156
	O420	O	0.280400	0.713168	0.434952
	H421	H	0.276192	0.714554	0.450715
	H422	H	0.272045	0.720672	0.439467
	O423	O	0.217311	0.037498	1.197191
	H424	H	0.233953	0.032298	1.206364
	H425	H	0.227951	0.049202	1.201526
	O426	O	0.494258	0.546534	0.590781
	H427	H	0.481237	0.550662	0.584260
	H428	H	0.504646	0.541816	0.582615
	O429	O	0.206106	0.210986	1.186391
	H430	H	0.231859	0.237369	1.213527
	H431	H	0.183165	0.189217	1.190628
	O432	O	0.508771	0.354709	0.551965
	H433	H	0.527282	0.328488	0.556348
	H434	H	0.491690	0.355776	0.558939
	O435	O	0.276995	0.530417	0.255482
	H436	H	0.272081	0.564428	0.251970
	H437	H	0.257806	0.546760	0.236403
	O438	O	-0.195886	-0.164947	-0.189852
	H439	H	-0.183480	-0.148283	-0.175445
	H440	H	-0.177240	-0.142896	-0.182830
	O441	O	0.650875	0.582711	0.377440
	H442	H	0.643147	0.596376	0.395035
	H443	H	0.660892	0.587264	0.368000
	O444	O	0.706954	0.292070	0.268744
	H445	H	0.678685	0.303208	0.273248
	H446	H	0.722187	0.299574	0.254886
	O447	O	-0.213382	1.209032	0.768420
	H448	H	-0.219526	1.233024	0.747810
	H449	H	-0.203246	1.210042	0.796003
	O450	O	-0.056865	1.031320	1.154187
	H451	H	-0.066374	1.029714	1.148622
	H452	H	-0.055132	1.027879	1.156477
	O453	O	0.662758	0.604951	0.421553
	H454	H	0.679325	0.620118	0.434818
	H455	H	0.657049	0.608890	0.433741
	O456	O	0.139124	-0.067370	1.022508
	H457	H	0.152539	-0.071080	1.013944
	H458	H	0.141586	-0.050744	1.031648
	O459	O	0.798091	0.955334	0.181940
	H460	H	0.784407	0.959393	0.197672
	H461	H	0.801518	0.938747	0.187005
	O462	O	0.346310	0.508354	0.400073
	H463	H	0.345380	0.511558	0.409852
	H464	H	0.345190	0.512114	0.401193
	O465	O	0.682205	-0.437686	-0.366900
	H466	H	0.685973	-0.433847	-0.359908
	H467	H	0.695153	-0.444844	-0.355689
	O468	O	0.498431	0.503835	0.251622
	H469	H	0.480110	0.515323	0.246884
	H470	H	0.504277	0.494889	0.246482
	O471	O	-0.038473	0.002067	1.040714
	H472	H	-0.039404	0.003021	1.032933
	H473	H	-0.034602	0.008587	1.042736
	O474	O	-0.192931	1.022999	0.776809
	H475	H	-0.213097	1.028721	0.762608
	H476	H	-0.187863	1.047209	0.780976
	O477	O	0.975190	-0.030868	0.900686
	H478	H	0.975352	-0.024623	0.912308
	H479	H	0.977533	-0.037693	0.903933
	O480	O	0.565947	0.710749	0.686566
	H481	H	0.568829	0.726159	0.703077
	H482	H	0.572046	0.688535	0.689876
	O483	O	1.287553	1.292528	0.690355
	H484	H	1.296587	1.291146	0.655673
	H485	H	1.254557	1.258306	0.717899
	O486	O	0.999420	0.200164	0.975237
	H487	H	1.005610	0.196028	0.963939
	H488	H	0.997384	0.198962	0.979676
	O489	O	1.015395	0.890872	0.076557
	H490	H	1.025590	0.889565	0.085398
	H491	H	1.003710	0.876154	0.082133
