data_Molecule from HDF5

_cell_length_a		16.204842
_cell_length_b		16.091580
_cell_length_c		16.199093
_cell_angle_alpha	90.839594
_cell_angle_beta	88.667605
_cell_angle_gamma	88.927658
_symmetry_space_group_name_H-M	'P 1'
_symmetry_Int_Tables_number		1

loop_
	_symmetry_equiv_pos_as_xyz
	x,y,z

loop_
	_atom_site_label
	_atom_site_type_symbol
	_atom_site_fract_x
	_atom_site_fract_y
	_atom_site_fract_z
	H0	H	0.406523	0.845567	0.720626
	H1	H	0.595245	0.177257	0.719825
	H2	H	0.608918	0.845993	0.286792
	H3	H	0.403871	0.178361	0.299233
	H4	H	0.729187	0.406013	0.841836
	H5	H	0.713676	0.611481	0.170752
	H6	H	0.294400	0.612255	0.839317
	H7	H	0.286488	0.415979	0.167166
	H8	H	0.839472	0.727498	0.411775
	H9	H	0.168795	0.725485	0.602052
	H10	H	0.837243	0.308554	0.602467
	H11	H	0.165895	0.288196	0.397610
	H12	H	0.843896	0.414757	0.725161
	H13	H	0.170690	0.609127	0.715173
	H14	H	0.839646	0.612533	0.295467
	H15	H	0.168480	0.404286	0.284016
	H16	H	0.411046	0.725324	0.840181
	H17	H	0.597724	0.726654	0.170812
	H18	H	0.613962	0.289834	0.843050
	H19	H	0.408057	0.307190	0.172199
	H20	H	0.722561	0.845860	0.402821
	H21	H	0.709180	0.178187	0.603359
	H22	H	0.288242	0.846311	0.608953
	H23	H	0.289004	0.177601	0.415020
	H24	H	0.908049	0.344896	0.216821
	H25	H	0.101638	0.674989	0.220861
	H26	H	0.114310	0.345977	0.783734
	H27	H	0.908923	0.676783	0.797571
	H28	H	0.227038	0.904867	0.344122
	H29	H	0.209519	0.114616	0.671575
	H30	H	0.790677	0.109880	0.340693
	H31	H	0.785314	0.915789	0.668110
	H32	H	0.342563	0.230602	0.914204
	H33	H	0.671636	0.222995	0.103808
	H34	H	0.340260	0.803677	0.106377
	H35	H	0.669345	0.793972	0.901263
	H36	H	0.341124	0.915111	0.225093
	H37	H	0.669984	0.110608	0.220975
	H38	H	0.339565	0.115252	0.800138
	H39	H	0.666797	0.906100	0.783965
	H40	H	0.904213	0.224321	0.340444
	H41	H	0.091970	0.227267	0.669339
	H42	H	0.108667	0.792952	0.341831
	H43	H	0.902170	0.803574	0.670879
	H44	H	0.230299	0.347846	0.896609
	H45	H	0.210550	0.678446	0.100352
	H46	H	0.792231	0.346878	0.104789
	H47	H	0.791273	0.675405	0.908513
	H48	H	0.414429	0.128675	0.608856
	H49	H	0.583082	0.894391	0.603210
	H50	H	0.585685	0.126154	0.415660
	H51	H	0.421305	0.894248	0.413732
	H52	H	0.604746	0.411964	0.127537
	H53	H	0.595331	0.604956	0.888492
	H54	H	0.402656	0.606410	0.123195
	H55	H	0.434200	0.414206	0.890586
	H56	H	0.123427	0.609092	0.412629
	H57	H	0.887918	0.612517	0.595835
	H58	H	0.124456	0.407400	0.587603
	H59	H	0.886597	0.419035	0.414802
	H60	H	0.120189	0.421979	0.584727
	H61	H	0.890258	0.596874	0.603266
	H62	H	0.117954	0.592278	0.417654
	H63	H	0.885440	0.422862	0.409148
	H64	H	0.409660	0.607193	0.121353
	H65	H	0.608419	0.606153	0.884615
	H66	H	0.603896	0.427464	0.122658
	H67	H	0.411371	0.411029	0.882254
	H68	H	0.605407	0.130321	0.421411
	H69	H	0.596922	0.897099	0.579310
	H70	H	0.402334	0.128803	0.594657
	H71	H	0.414573	0.893994	0.418353
	H72	H	0.907621	0.628396	0.092867
	H73	H	0.102624	0.393593	0.085047
	H74	H	0.113276	0.633039	0.913992
	H75	H	0.918776	0.393616	0.920497
	H76	H	0.094990	0.926590	0.622015
	H77	H	0.104955	0.097097	0.387087
	H78	H	0.899780	0.108016	0.623965
	H79	H	0.922270	0.922469	0.390414
	H80	H	0.623279	0.095856	0.908318
	H81	H	0.389516	0.110069	0.098441
	H82	H	0.626290	0.916931	0.106831
	H83	H	0.389577	0.921565	0.924081
	H84	H	0.624046	0.908068	0.088123
	H85	H	0.389070	0.105056	0.107279
	H86	H	0.624066	0.101624	0.910442
	H87	H	0.386219	0.927060	0.909390
	H88	H	0.906768	0.108195	0.622615
	H89	H	0.094869	0.092964	0.391198
	H90	H	0.086671	0.916653	0.623091
	H91	H	0.915042	0.907626	0.383804
	H92	H	0.094601	0.632995	0.895750
	H93	H	0.104305	0.389704	0.096549
	H94	H	0.903627	0.633701	0.108154
	H95	H	0.913869	0.388811	0.908094
	H96	H	0.395771	0.134561	0.612805
	H97	H	0.610043	0.887084	0.601759
	H98	H	0.598534	0.134650	0.401628
	H99	H	0.414154	0.891575	0.410724
	H100	H	0.591255	0.417533	0.121461
	H101	H	0.603741	0.594390	0.889115
	H102	H	0.406416	0.613392	0.123283
	H103	H	0.418482	0.432809	0.891009
	H104	H	0.123997	0.595541	0.400787
	H105	H	0.883247	0.611260	0.612298
	H106	H	0.124478	0.418327	0.599311
	H107	H	0.882612	0.416099	0.406929
	H108	H	0.918028	0.628377	0.104374
	H109	H	0.092809	0.393727	0.093324
	H110	H	0.090018	0.623305	0.921440
	H111	H	0.927119	0.393254	0.909170
	H112	H	0.098435	0.915116	0.626928
	H113	H	0.096146	0.104081	0.386444
	H114	H	0.903168	0.113993	0.624740
	H115	H	0.904504	0.922478	0.385517
	H116	H	0.621996	0.097326	0.913803
	H117	H	0.386254	0.114682	0.106204
	H118	H	0.619118	0.928393	0.091741
	H119	H	0.382992	0.911244	0.912398
	C120	C	0.378513	0.020749	0.632425
	C121	C	0.622284	1.002826	0.624556
	C122	C	0.627914	0.020979	0.382030
	C123	C	0.385414	1.003282	0.388086
	C124	C	0.631826	0.387552	0.015218
	C125	C	0.627253	0.632369	0.996526
	C126	C	0.381550	0.636142	0.013286
	C127	C	0.388300	0.392536	0.996426
	C128	C	0.013009	0.630625	0.384238
	C129	C	0.996345	0.634323	0.628829
	C130	C	0.014091	0.390895	0.622741
	C131	C	0.993910	0.387395	0.379822
	C132	C	0.882763	0.520222	0.128343
	C133	C	0.125726	0.501920	0.122589
	C134	C	0.131693	0.520613	0.879100
	C135	C	0.888841	0.501476	0.885949
	C136	C	0.126802	0.887676	0.515764
	C137	C	0.122548	0.130668	0.496985
	C138	C	0.877896	0.135672	0.514299
	C139	C	0.883049	0.891047	0.495972
	C140	C	0.514264	0.131142	0.886381
	C141	C	0.497318	0.135831	0.130677
	C142	C	0.514145	0.891303	0.126529
	C143	C	0.495209	0.888913	0.883408
	C144	C	0.383969	0.895415	0.684856
	C145	C	0.617153	0.127701	0.681826
	C146	C	0.627854	0.895765	0.325364
	C147	C	0.384742	0.128442	0.335841
	C148	C	0.690300	0.386741	0.891212
	C149	C	0.677688	0.631339	0.121289
	C150	C	0.330611	0.632588	0.888868
	C151	C	0.327147	0.395750	0.119070
	C152	C	0.888724	0.688493	0.390287
	C153	C	0.119967	0.688178	0.623155
	C154	C	0.888252	0.342082	0.623087
	C155	C	0.117374	0.327683	0.379005
	C156	C	0.891531	0.395113	0.683925
	C157	C	0.120868	0.629971	0.679438
	C158	C	0.888902	0.631334	0.332266
	C159	C	0.118476	0.385416	0.322287
	C160	C	0.388703	0.688841	0.889229
	C161	C	0.620212	0.688905	0.121136
	C162	C	0.633276	0.328579	0.891903
	C163	C	0.388130	0.342200	0.121757
	C164	C	0.684811	0.895817	0.382656
	C165	C	0.673360	0.128298	0.623545
	C166	C	0.325456	0.895744	0.629243
	C167	C	0.327693	0.128030	0.393740
	C168	C	0.886695	0.395246	0.181047
	C169	C	0.121569	0.626003	0.181161
	C170	C	0.133226	0.395825	0.821782
	C171	C	0.889070	0.626660	0.833597
	C172	C	0.187264	0.886185	0.392915
	C173	C	0.172822	0.132061	0.621711
	C174	C	0.826176	0.131170	0.390241
	C175	C	0.824812	0.895496	0.619626
	C176	C	0.391090	0.190754	0.892846
	C177	C	0.621878	0.187325	0.125625
	C178	C	0.389735	0.839306	0.126703
	C179	C	0.619447	0.831773	0.882111
	C180	C	0.390240	0.895144	0.185431
	C181	C	0.620947	0.131289	0.183952
	C182	C	0.389551	0.133283	0.835954
	C183	C	0.618182	0.887551	0.823606
	C184	C	0.882880	0.187975	0.389929
	C185	C	0.114830	0.188957	0.620420
	C186	C	0.128107	0.830517	0.391731
	C187	C	0.882883	0.839440	0.620806
	C188	C	0.191117	0.396858	0.877882
	C189	C	0.176041	0.627628	0.121307
	C190	C	0.829188	0.396096	0.125192
	C191	C	0.830710	0.626257	0.889339
	C192	C	0.398198	0.107899	0.611677
	C193	C	0.602610	0.915735	0.601463
	C194	C	0.603850	0.107970	0.405867
	C195	C	0.409606	0.915971	0.408334
	C196	C	0.607214	0.412039	0.101486
	C197	C	0.608227	0.608953	0.909928
	C198	C	0.400484	0.615055	0.100119
	C199	C	0.413931	0.413213	0.910339
	C200	C	0.099458	0.606148	0.404414
	C201	C	0.909635	0.613215	0.609583
	C202	C	0.100658	0.410172	0.597583
	C203	C	0.907318	0.412030	0.403456
	C204	C	0.903499	0.607529	0.107820
	C205	C	0.105704	0.414758	0.098693
	C206	C	0.106773	0.607218	0.903218
	C207	C	0.912797	0.414449	0.906535
	C208	C	0.100895	0.912179	0.601866
	C209	C	0.104286	0.105355	0.410542
	C210	C	0.897213	0.115986	0.601258
	C211	C	0.906979	0.911391	0.409195
	C212	C	0.600830	0.105766	0.905266
	C213	C	0.410740	0.115746	0.110345
	C214	C	0.600616	0.911624	0.102630
	C215	C	0.408587	0.912882	0.908253
	Zn216	Zn	0.502899	0.010985	0.756642
	Zn217	Zn	0.505347	0.012607	0.256409
	Zn218	Zn	0.758033	0.511401	0.005735
	Zn219	Zn	0.255978	0.512211	0.002485
	Zn220	Zn	0.003711	0.761319	0.506208
	Zn221	Zn	0.001474	0.261396	0.503101
	Zn222	Zn	0.007994	0.510343	0.754619
	Zn223	Zn	0.004873	0.509856	0.253569
	Zn224	Zn	0.504800	0.762208	0.005579
	Zn225	Zn	0.507852	0.261460	0.007247
	Zn226	Zn	0.753328	0.012254	0.504928
	Zn227	Zn	0.253767	0.010597	0.508255
	N228	N	0.415738	0.974211	0.687306
	N229	N	0.586156	0.048724	0.682538
	N230	N	0.593102	0.974584	0.324748
	N231	N	0.420040	0.049906	0.332281
	N232	N	0.689490	0.422649	0.968977
	N233	N	0.682268	0.596904	0.042826
	N234	N	0.325981	0.600577	0.967161
	N235	N	0.327101	0.426423	0.040119
	N236	N	0.966970	0.688374	0.421892
	N237	N	0.041401	0.691231	0.592544
	N238	N	0.965549	0.339178	0.585638
	N239	N	0.039017	0.328601	0.413948
	N240	N	0.970800	0.424362	0.684123
	N241	N	0.042950	0.597407	0.683253
	N242	N	0.967162	0.595886	0.328462
	N243	N	0.040854	0.421728	0.322687
	N244	N	0.419389	0.691361	0.967669
	N245	N	0.589409	0.689746	0.042549
	N246	N	0.597697	0.328962	0.969941
	N247	N	0.425436	0.339929	0.044519
	N248	N	0.685082	0.974533	0.417079
	N249	N	0.676970	0.049650	0.588636
	N250	N	0.321332	0.974646	0.597721
	N251	N	0.327912	0.048903	0.425350
	N252	N	0.919312	0.473523	0.183090
	N253	N	0.091035	0.546744	0.182158
	N254	N	0.096837	0.473800	0.822349
	N255	N	0.924891	0.548259	0.831391
	N256	N	0.186790	0.920798	0.471153
	N257	N	0.177889	0.096497	0.543946
	N258	N	0.822781	0.099418	0.468761
	N259	N	0.824903	0.926782	0.540936
	N260	N	0.469645	0.189624	0.923260
	N261	N	0.544011	0.190517	0.093520
	N262	N	0.467737	0.836543	0.090960
	N263	N	0.541808	0.832480	0.918556
	N264	N	0.468626	0.926617	0.185555
	N265	N	0.542361	0.100148	0.187424
	N266	N	0.467201	0.096586	0.832020
	N267	N	0.539831	0.922257	0.824262
	N268	N	0.914425	0.191124	0.467928
	N269	N	0.083904	0.187949	0.541855
	N270	N	0.091309	0.831154	0.469254
	N271	N	0.918742	0.836759	0.542909
	N272	N	0.190407	0.475407	0.912461
	N273	N	0.178732	0.549344	0.085378
	N274	N	0.826381	0.475024	0.093426
	N275	N	0.830473	0.547376	0.921177
	O276	O	0.537766	0.559600	0.481716
	H277	H	0.547113	0.543948	0.470888
	H278	H	0.533154	0.568221	0.476265
	O279	O	0.400754	0.559690	0.537264
	H280	H	0.410465	0.562309	0.538404
	H281	H	0.387865	0.547466	0.549298
	O282	O	1.062578	0.944090	-0.016808
	H283	H	1.056860	0.943962	-0.027921
	H284	H	1.047271	0.937436	-0.005964
	O285	O	1.064588	0.122347	1.139311
	H286	H	1.073171	0.142127	1.140302
	H287	H	1.074259	0.121999	1.135460
	O288	O	-0.073308	0.033275	0.033669
	H289	H	-0.059997	0.023325	0.033254
	H290	H	-0.074623	0.039495	0.031877
	O291	O	0.577582	0.541778	0.590925
	H292	H	0.564813	0.538522	0.590530
	H293	H	0.575877	0.543949	0.595861
	O294	O	0.537439	0.506585	0.585181
	H295	H	0.528866	0.500481	0.583833
	H296	H	0.538661	0.499236	0.584995
	O297	O	-0.063802	-0.086702	1.020487
	H298	H	-0.068716	-0.080378	1.026057
	H299	H	-0.064127	-0.083182	1.024151
	O300	O	0.590683	0.444262	0.410247
	H301	H	0.597501	0.449835	0.404269
	H302	H	0.587657	0.455748	0.394762
	O303	O	0.951431	0.951768	0.111177
	H304	H	0.955787	0.958714	0.117215
	H305	H	0.940057	0.965126	0.120467
	O306	O	-0.559706	1.574794	0.403948
	H307	H	-0.555155	1.581381	0.397083
	H308	H	-0.577188	1.579707	0.392641
	O309	O	0.512835	0.602800	0.585453
	H310	H	0.505393	0.606525	0.594718
	H311	H	0.509888	0.600179	0.586031
	O312	O	0.131007	0.108931	0.060838
	H313	H	0.134933	0.106592	0.049949
	H314	H	0.126974	0.102179	0.053357
	O315	O	0.979347	-0.084684	0.028928
	H316	H	0.978229	-0.074035	0.043313
	H317	H	0.981378	-0.096887	0.036387
	O318	O	1.130890	0.995828	0.831678
	H319	H	1.139669	0.964817	0.831120
	H320	H	1.152096	0.989452	0.822516
	O321	O	-0.079225	0.024448	0.967156
	H322	H	-0.087078	0.022478	0.964539
	H323	H	-0.082419	0.034152	0.955879
	O324	O	0.449840	0.550269	0.513509
	H325	H	0.457374	0.556002	0.513484
	H326	H	0.437932	0.541818	0.519806
	O327	O	-0.020435	-0.071805	0.056929
	H328	H	-0.029201	-0.059446	0.072518
	H329	H	-0.022717	-0.070783	0.052053
	O330	O	0.507230	0.494485	0.518189
	H331	H	0.504016	0.479256	0.517733
	H332	H	0.510617	0.483099	0.512728
	O333	O	-0.368633	0.509528	0.453854
	H334	H	-0.377523	0.503607	0.466574
	H335	H	-0.358688	0.503735	0.470945
	O336	O	0.004841	0.063696	0.016553
	H337	H	0.014549	0.070425	0.014421
	H338	H	0.001547	0.054011	0.008878
	O339	O	1.035468	0.086388	0.988057
	H340	H	1.030861	0.081657	0.985853
	H341	H	1.035449	0.094098	0.974465
	O342	O	0.954601	1.038753	1.022338
	H343	H	0.946311	1.042867	1.016980
	H344	H	0.949040	1.038933	1.023144
	O345	O	1.077806	0.927249	-0.143375
	H346	H	1.087542	0.921073	-0.145240
	H347	H	1.073289	0.917530	-0.135430
	O348	O	0.346716	0.485336	0.494262
	H349	H	0.340924	0.485227	0.477990
	H350	H	0.337682	0.489104	0.500245
	O351	O	0.565648	0.600957	0.610663
	H352	H	0.573459	0.613744	0.607818
	H353	H	0.572252	0.599030	0.608356
	O354	O	0.514892	0.640813	0.447183
	H355	H	0.516470	0.647348	0.459733
	H356	H	0.505790	0.648784	0.452457
	O357	O	1.031053	0.095993	1.146000
	H358	H	1.022052	0.095387	1.147974
	H359	H	1.042862	0.100039	1.138873
	O360	O	0.440512	0.422883	0.463574
	H361	H	0.452036	0.414441	0.461390
	H362	H	0.448422	0.423409	0.457652
	O363	O	0.948225	0.053120	0.934353
	H364	H	0.958859	0.050584	0.927293
	H365	H	0.950900	0.046522	0.933902
	O366	O	0.442101	0.502345	0.447477
	H367	H	0.441951	0.510435	0.444602
	H368	H	0.448945	0.515261	0.453407
	O369	O	1.020514	0.025067	0.988657
	H370	H	1.025752	0.010209	0.976247
	H371	H	1.004370	0.023076	0.992521
	O372	O	0.023953	0.051312	-0.043390
	H373	H	0.017560	0.050266	-0.051239
	H374	H	0.030508	0.053502	-0.041007
	O375	O	1.148791	-0.169128	-0.101911
	H376	H	1.144162	-0.172242	-0.090901
	H377	H	1.153089	-0.183254	-0.102084
	O378	O	0.492177	0.393206	0.590416
	H379	H	0.502708	0.392241	0.598771
	H380	H	0.496141	0.390665	0.576126
	O381	O	0.534766	0.386082	0.412658
	H382	H	0.546380	0.379664	0.417782
	H383	H	0.528848	0.383607	0.405142
