data_Molecule from HDF5

_cell_length_a		16.337299
_cell_length_b		16.395585
_cell_length_c		16.242358
_cell_angle_alpha	90.160379
_cell_angle_beta	89.564744
_cell_angle_gamma	89.746241
_symmetry_space_group_name_H-M	'P 1'
_symmetry_Int_Tables_number		1

loop_
	_symmetry_equiv_pos_as_xyz
	x,y,z

loop_
	_atom_site_label
	_atom_site_type_symbol
	_atom_site_fract_x
	_atom_site_fract_y
	_atom_site_fract_z
	H0	H	0.392688	0.844989	0.709279
	H1	H	0.594946	0.166072	0.711702
	H2	H	0.595520	0.845821	0.272637
	H3	H	0.387799	0.166397	0.275243
	H4	H	0.712806	0.402751	0.833237
	H5	H	0.708067	0.611918	0.155215
	H6	H	0.275973	0.606446	0.830736
	H7	H	0.271030	0.404182	0.154972
	H8	H	0.831099	0.725778	0.391187
	H9	H	0.151369	0.725024	0.597719
	H10	H	0.831073	0.286104	0.600044
	H11	H	0.151872	0.285542	0.387987
	H12	H	0.829953	0.404791	0.713203
	H13	H	0.153167	0.603823	0.708600
	H14	H	0.829047	0.607317	0.279333
	H15	H	0.152550	0.403537	0.274313
	H16	H	0.391566	0.722944	0.830843
	H17	H	0.593273	0.726989	0.154048
	H18	H	0.595885	0.288818	0.831852
	H19	H	0.383510	0.285283	0.153262
	H20	H	0.712453	0.846305	0.388462
	H21	H	0.709415	0.166645	0.597228
	H22	H	0.273436	0.846473	0.597344
	H23	H	0.269719	0.164224	0.387682
	H24	H	0.886710	0.347315	0.215109
	H25	H	0.094144	0.666103	0.213089
	H26	H	0.096340	0.346243	0.772624
	H27	H	0.889100	0.666678	0.776679
	H28	H	0.216103	0.897555	0.333014
	H29	H	0.208583	0.107912	0.654851
	H30	H	0.772243	0.111618	0.332609
	H31	H	0.770235	0.903444	0.653913
	H32	H	0.332477	0.228954	0.885743
	H33	H	0.648798	0.230861	0.100344
	H34	H	0.330393	0.790012	0.095570
	H35	H	0.651930	0.784575	0.886192
	H36	H	0.331691	0.902988	0.213336
	H37	H	0.651124	0.110737	0.212132
	H38	H	0.330947	0.107949	0.775606
	H39	H	0.654269	0.904808	0.774316
	H40	H	0.884590	0.229779	0.334096
	H41	H	0.096240	0.225896	0.653873
	H42	H	0.101304	0.781703	0.333497
	H43	H	0.886899	0.788813	0.655297
	H44	H	0.213981	0.348004	0.885413
	H45	H	0.207340	0.666881	0.096375
	H46	H	0.768319	0.348967	0.103412
	H47	H	0.771828	0.667052	0.891067
	H48	H	0.403258	0.119105	0.582297
	H49	H	0.579995	0.891909	0.583108
	H50	H	0.579545	0.120918	0.401346
	H51	H	0.404960	0.895331	0.412829
	H52	H	0.580919	0.424183	0.106800
	H53	H	0.576092	0.595704	0.880172
	H54	H	0.397725	0.597024	0.109396
	H55	H	0.402287	0.430553	0.883344
	H56	H	0.107048	0.599397	0.404144
	H57	H	0.874286	0.600165	0.585621
	H58	H	0.107690	0.410227	0.585029
	H59	H	0.875454	0.415696	0.402835
	H60	H	0.103685	0.414313	0.577117
	H61	H	0.876347	0.597953	0.583276
	H62	H	0.104631	0.593394	0.407929
	H63	H	0.876898	0.413140	0.408570
	H64	H	0.399977	0.598367	0.108398
	H65	H	0.584155	0.599957	0.876038
	H66	H	0.570870	0.417665	0.107027
	H67	H	0.414023	0.409938	0.879088
	H68	H	0.581446	0.118922	0.405536
	H69	H	0.583359	0.892257	0.579373
	H70	H	0.397338	0.121331	0.581219
	H71	H	0.396098	0.888576	0.401221
	H72	H	0.894145	0.620969	0.079454
	H73	H	0.080967	0.393817	0.079621
	H74	H	0.088746	0.620996	0.911420
	H75	H	0.901410	0.393311	0.906345
	H76	H	0.080435	0.914235	0.607732
	H77	H	0.081672	0.096233	0.378238
	H78	H	0.897099	0.098717	0.610423
	H79	H	0.902947	0.915633	0.377972
	H80	H	0.609951	0.105607	0.901083
	H81	H	0.379911	0.092585	0.076437
	H82	H	0.604917	0.916475	0.076244
	H83	H	0.377468	0.915141	0.903577
	H84	H	0.607278	0.918620	0.083989
	H85	H	0.376924	0.092894	0.087676
	H86	H	0.602315	0.094860	0.911486
	H87	H	0.376102	0.916888	0.900513
	H88	H	0.900308	0.089720	0.606634
	H89	H	0.082187	0.092189	0.378598
	H90	H	0.083014	0.914923	0.609219
	H91	H	0.903757	0.917779	0.379523
	H92	H	0.086049	0.625174	0.892833
	H93	H	0.082876	0.391521	0.082934
	H94	H	0.897888	0.623503	0.092303
	H95	H	0.901276	0.391961	0.904592
	H96	H	0.399962	0.122602	0.586516
	H97	H	0.584603	0.890703	0.583588
	H98	H	0.584633	0.121592	0.402660
	H99	H	0.410858	0.892498	0.398292
	H100	H	0.581282	0.413376	0.111192
	H101	H	0.585029	0.590582	0.878639
	H102	H	0.397771	0.600128	0.110215
	H103	H	0.390881	0.411809	0.872326
	H104	H	0.106563	0.593009	0.400238
	H105	H	0.876166	0.596816	0.586941
	H106	H	0.105613	0.419068	0.585386
	H107	H	0.878794	0.419737	0.407422
	H108	H	0.906559	0.617626	0.082923
	H109	H	0.078320	0.392001	0.082757
	H110	H	0.071983	0.617498	0.903453
	H111	H	0.902285	0.393207	0.905260
	H112	H	0.081560	0.916676	0.607514
	H113	H	0.078345	0.093735	0.379931
	H114	H	0.906546	0.097735	0.605903
	H115	H	0.905690	0.915638	0.379147
	H116	H	0.606844	0.090601	0.895449
	H117	H	0.376004	0.102548	0.081094
	H118	H	0.607551	0.910592	0.081191
	H119	H	0.376652	0.912657	0.901883
	C120	C	0.370027	0.014835	0.614918
	C121	C	0.613365	0.997474	0.613654
	C122	C	0.613988	0.014923	0.370727
	C123	C	0.371186	0.997350	0.372341
	C124	C	0.611479	0.386162	0.002291
	C125	C	0.612007	0.627552	0.984716
	C126	C	0.369458	0.628139	0.001845
	C127	C	0.369448	0.385452	0.984382
	C128	C	-0.000038	0.626906	0.373149
	C129	C	0.982287	0.627595	0.615669
	C130	C	-0.000376	0.383994	0.615199
	C131	C	0.982979	0.384589	0.372703
	C132	C	0.868430	0.515547	0.116998
	C133	C	0.111430	0.498124	0.113915
	C134	C	0.113756	0.515162	0.870722
	C135	C	0.870111	0.498442	0.873930
	C136	C	0.114656	0.882871	0.502124
	C137	C	0.111870	0.125790	0.485110
	C138	C	0.869536	0.128086	0.501912
	C139	C	0.871445	0.885445	0.485134
	C140	C	0.500451	0.128123	0.871263
	C141	C	0.482953	0.128053	0.113959
	C142	C	0.500215	0.884904	0.113096
	C143	C	0.483668	0.884306	0.870811
	C144	C	0.371973	0.893572	0.671783
	C145	C	0.613864	0.118083	0.672763
	C146	C	0.615269	0.894183	0.311443
	C147	C	0.369462	0.118138	0.314361
	C148	C	0.672506	0.384471	0.881363
	C149	C	0.669590	0.630056	0.106426
	C150	C	0.313612	0.626774	0.879552
	C151	C	0.309684	0.384535	0.105995
	C152	C	0.879026	0.686200	0.372648
	C153	C	0.103383	0.685269	0.616269
	C154	C	0.879042	0.325555	0.618068
	C155	C	0.103795	0.325331	0.369883
	C156	C	0.878536	0.384481	0.674650
	C157	C	0.104447	0.624823	0.671140
	C158	C	0.877978	0.626986	0.316968
	C159	C	0.103955	0.383931	0.313055
	C160	C	0.371100	0.684400	0.879463
	C161	C	0.612157	0.687244	0.105942
	C162	C	0.614232	0.327764	0.880465
	C163	C	0.365896	0.325549	0.105230
	C164	C	0.673147	0.894325	0.369394
	C165	C	0.671039	0.118141	0.615779
	C166	C	0.312600	0.894298	0.615916
	C167	C	0.310212	0.117050	0.370117
	C168	C	0.867524	0.395482	0.176292
	C169	C	0.112275	0.618256	0.173343
	C170	C	0.115406	0.394875	0.811516
	C171	C	0.869772	0.618794	0.815491
	C172	C	0.175799	0.879712	0.381277
	C173	C	0.170133	0.126998	0.606176
	C174	C	0.810888	0.130183	0.381179
	C175	C	0.810658	0.884618	0.606030
	C176	C	0.380231	0.188316	0.868691
	C177	C	0.602016	0.189446	0.117423
	C178	C	0.379008	0.827878	0.115005
	C179	C	0.604373	0.824887	0.868528
	C180	C	0.379654	0.884436	0.173304
	C181	C	0.603089	0.129615	0.173091
	C182	C	0.379704	0.128275	0.813341
	C183	C	0.605470	0.884649	0.812721
	C184	C	0.867279	0.188923	0.381882
	C185	C	0.113970	0.185804	0.605665
	C186	C	0.118399	0.821984	0.381372
	C187	C	0.868999	0.827886	0.606801
	C188	C	0.173933	0.395564	0.867913
	C189	C	0.168996	0.618672	0.115194
	C190	C	0.808546	0.396286	0.120396
	C191	C	0.811400	0.618893	0.872690
	C192	C	0.393406	0.099005	0.590556
	C193	C	0.589537	0.913440	0.589115
	C194	C	0.589160	0.098690	0.395788
	C195	C	0.396669	0.913839	0.396943
	C196	C	0.585460	0.411157	0.086384
	C197	C	0.588614	0.602555	0.900326
	C198	C	0.392017	0.605228	0.087169
	C199	C	0.395051	0.409971	0.900090
	C200	C	0.084132	0.602331	0.396990
	C201	C	0.897596	0.605007	0.592282
	C202	C	0.083793	0.407568	0.589810
	C203	C	0.898981	0.409061	0.398667
	C204	C	0.892551	0.599050	0.091992
	C205	C	0.087674	0.414459	0.088959
	C206	C	0.089220	0.599314	0.895459
	C207	C	0.894573	0.414631	0.898503
	C208	C	0.089008	0.907947	0.586175
	C209	C	0.087504	0.101104	0.400793
	C210	C	0.894356	0.102761	0.586010
	C211	C	0.896783	0.909416	0.400883
	C212	C	0.584668	0.104007	0.895788
	C213	C	0.399446	0.103157	0.088960
	C214	C	0.584699	0.908486	0.087669
	C215	C	0.398816	0.907936	0.894915
	Zn216	Zn	0.492666	0.006263	0.742703
	Zn217	Zn	0.491258	0.006069	0.242602
	Zn218	Zn	0.740406	0.506926	-0.004946
	Zn219	Zn	0.240879	0.506770	-0.006608
	Zn220	Zn	-0.008063	0.756267	0.493812
	Zn221	Zn	-0.008610	0.255424	0.493496
	Zn222	Zn	-0.009135	0.505868	0.743890
	Zn223	Zn	-0.009004	0.506600	0.243962
	Zn224	Zn	0.491290	0.755956	-0.007545
	Zn225	Zn	0.491137	0.257185	-0.007224
	Zn226	Zn	0.741866	0.006572	0.493011
	Zn227	Zn	0.241756	0.005404	0.492944
	N228	N	0.406623	0.969731	0.671553
	N229	N	0.578474	0.042181	0.671465
	N230	N	0.579451	0.970244	0.311938
	N231	N	0.406413	0.042810	0.315597
	N232	N	0.671242	0.419938	0.958267
	N233	N	0.669793	0.593645	0.030151
	N234	N	0.312402	0.592375	0.956744
	N235	N	0.311783	0.421055	0.029857
	N236	N	0.955974	0.686573	0.406510
	N237	N	0.026353	0.687369	0.582709
	N238	N	0.955425	0.324810	0.582322
	N239	N	0.027268	0.325344	0.405990
	N240	N	0.954575	0.420075	0.672885
	N241	N	0.028054	0.589954	0.670972
	N242	N	0.954372	0.591277	0.316961
	N243	N	0.027720	0.419682	0.314330
	N244	N	0.404804	0.685509	0.956524
	N245	N	0.577177	0.685881	0.029282
	N246	N	0.577500	0.328326	0.956756
	N247	N	0.402081	0.325738	0.028507
	N248	N	0.672799	0.970534	0.404978
	N249	N	0.670974	0.042124	0.579802
	N250	N	0.310790	0.970969	0.581845
	N251	N	0.311052	0.040900	0.405530
	N252	N	0.904005	0.470624	0.174388
	N253	N	0.077110	0.542366	0.172786
	N254	N	0.078697	0.470364	0.813073
	N255	N	0.905541	0.542742	0.816147
	N256	N	0.173591	0.916895	0.457147
	N257	N	0.168863	0.090158	0.530124
	N258	N	0.812608	0.092886	0.456736
	N259	N	0.812415	0.920193	0.529625
	N260	N	0.456509	0.188585	0.903902
	N261	N	0.526212	0.188579	0.081314
	N262	N	0.455073	0.828114	0.078179
	N263	N	0.527718	0.824628	0.903921
	N264	N	0.456226	0.919041	0.172332
	N265	N	0.528008	0.092187	0.171070
	N266	N	0.455468	0.091636	0.814788
	N267	N	0.529385	0.920921	0.814131
	N268	N	0.902942	0.187780	0.458115
	N269	N	0.078361	0.185271	0.529298
	N270	N	0.080962	0.823862	0.457438
	N271	N	0.906237	0.828271	0.530630
	N272	N	0.172931	0.471424	0.904153
	N273	N	0.168798	0.542721	0.078976
	N274	N	0.808910	0.471998	0.084162
	N275	N	0.811485	0.542860	0.908288
	O276	O	0.456109	0.649401	0.387420
	H277	H	0.462786	0.652337	0.378352
	H278	H	0.465062	0.653573	0.386722
	O279	O	0.954450	1.162446	-0.204934
	H280	H	0.970240	1.160213	-0.212073
	H281	H	0.954113	1.165603	-0.207571
	O282	O	-0.115156	-0.180930	1.049894
	H283	H	-0.114073	-0.187374	1.046795
	H284	H	-0.137611	-0.182960	1.039471
	O285	O	1.003396	-0.149539	-0.203550
	H286	H	1.022711	-0.157742	-0.207664
	H287	H	1.011409	-0.144759	-0.200671
	O288	O	-0.158515	-0.182207	1.137517
	H289	H	-0.167130	-0.142520	1.138171
	H290	H	-0.160345	-0.188182	1.098047
	O291	O	0.304478	0.501361	0.515142
	H292	H	0.313864	0.501947	0.509728
	H293	H	0.290718	0.523868	0.517671
	O294	O	0.407097	0.459326	0.676372
	H295	H	0.394742	0.455426	0.660380
	H296	H	0.405015	0.443630	0.693567
	O297	O	1.071435	0.803507	0.913486
	H298	H	1.078151	0.805847	0.944873
	H299	H	1.081242	0.789073	0.914042
	O300	O	0.164590	0.047473	0.159724
	H301	H	0.147374	0.034870	0.158464
	H302	H	0.158889	0.045557	0.183965
	O303	O	0.562123	0.599096	0.495601
	H304	H	0.573713	0.590522	0.487058
	H305	H	0.556543	0.603519	0.501247
	O306	O	1.017809	0.125695	-0.205099
	H307	H	1.006149	0.112522	-0.200516
	H308	H	1.018364	0.129699	-0.215396
	O309	O	0.677503	0.462315	0.514484
	H310	H	0.680591	0.464425	0.507274
	H311	H	0.693693	0.450347	0.522263
	O312	O	1.075474	0.941688	0.202357
	H313	H	1.047797	0.916502	0.202410
	H314	H	1.056138	0.959391	0.216940
	O315	O	0.664479	0.419729	0.334440
	H316	H	0.664699	0.412295	0.343362
	H317	H	0.681201	0.407767	0.334487
	O318	O	0.332266	0.664512	0.483808
	H319	H	0.330111	0.675116	0.483345
	H320	H	0.340192	0.665370	0.463773
	O321	O	0.875621	0.092242	1.173023
	H322	H	0.877467	0.102119	1.177624
	H323	H	0.857367	0.092806	1.156178
	O324	O	0.136504	0.000940	0.839185
	H325	H	0.143092	-0.021224	0.825222
	H326	H	0.151328	-0.006293	0.847248
	O327	O	0.606582	0.544211	0.519065
	H328	H	0.596978	0.542108	0.521316
	H329	H	0.612382	0.535519	0.519863
	O330	O	0.393843	0.386247	0.356500
	H331	H	0.381160	0.380943	0.378935
	H332	H	0.396060	0.400424	0.355626
	O333	O	0.796292	1.159040	0.959415
	H334	H	0.805015	1.154761	0.933484
	H335	H	0.787121	1.167583	0.956827
	O336	O	0.599714	0.672189	0.552346
	H337	H	0.591186	0.678141	0.557973
	H338	H	0.600958	0.669792	0.555949
	O339	O	1.177060	0.191226	1.183027
	H340	H	1.179583	0.201543	1.143396
	H341	H	1.178245	0.155634	1.179944
	O342	O	0.203301	1.175678	1.019721
	H343	H	0.225663	1.194204	1.022164
	H344	H	0.199673	1.171719	1.000087
	O345	O	0.566700	0.684268	0.674862
	H346	H	0.569856	0.687142	0.670606
	H347	H	0.560719	0.683549	0.683081
	O348	O	0.365690	0.448664	0.559763
	H349	H	0.368502	0.445197	0.562570
	H350	H	0.358886	0.437401	0.565770
	O351	O	0.030982	-0.164538	-0.147702
	H352	H	0.035360	-0.176118	-0.149901
	H353	H	0.025424	-0.159119	-0.131948
	O354	O	0.846156	0.966130	-0.178898
	H355	H	0.852482	0.966942	-0.188229
	H356	H	0.853017	0.950272	-0.161118
	O357	O	-0.201140	0.983024	0.178897
	H358	H	-0.221089	0.986054	0.187281
	H359	H	-0.188412	0.993068	0.176879
	O360	O	0.413677	0.380617	0.676734
	H361	H	0.436826	0.385436	0.681462
	H362	H	0.411894	0.373773	0.691323
	O363	O	0.401317	0.546690	0.620934
	H364	H	0.405821	0.535669	0.592991
	H365	H	0.414060	0.549729	0.616276
	O366	O	0.552711	0.547548	0.519980
	H367	H	0.554196	0.550587	0.515676
	H368	H	0.557540	0.557210	0.519979
	O369	O	0.378671	0.643661	0.383870
	H370	H	0.364847	0.626584	0.370524
	H371	H	0.395709	0.651483	0.375522
	O372	O	0.462995	0.422564	0.411971
	H373	H	0.454680	0.414181	0.416328
	H374	H	0.472788	0.416757	0.413839
	O375	O	0.610761	0.396133	0.561622
	H376	H	0.609904	0.417044	0.556173
	H377	H	0.592579	0.392526	0.547631
	O378	O	0.316372	0.558040	0.318331
	H379	H	0.314737	0.539257	0.327996
	H380	H	0.314278	0.543660	0.301174
	O381	O	0.438559	0.319865	0.505673
	H382	H	0.428104	0.311495	0.526030
	H383	H	0.448043	0.316217	0.513957
	O384	O	-0.107615	1.024145	1.017098
	H385	H	-0.105797	1.043053	1.022506
	H386	H	-0.099068	1.037669	1.013736
	O387	O	1.083458	0.872618	0.009118
	H388	H	1.095761	0.877709	0.021136
	H389	H	1.075351	0.885539	0.038343
	O390	O	0.541240	0.486358	0.658256
	H391	H	0.541220	0.497378	0.648254
	H392	H	0.538746	0.490433	0.667296
	O393	O	1.053449	-0.789716	1.904573
	H394	H	1.058611	-0.804934	1.898165
	H395	H	1.034969	-0.791384	1.911142
	O396	O	-0.064228	0.792665	1.202844
	H397	H	-0.100950	0.805226	1.187999
	H398	H	-0.068092	0.757074	1.229574
	O399	O	0.631986	0.447522	0.372341
	H400	H	0.639518	0.436503	0.374535
	H401	H	0.605864	0.442550	0.377772
	O402	O	0.794525	0.149810	0.890734
	H403	H	0.791306	0.125687	0.880891
	H404	H	0.816638	0.162957	0.892423
	O405	O	-0.198760	-0.017768	-0.113930
	H406	H	-0.181673	-0.020093	-0.110099
	H407	H	-0.200080	-0.030461	-0.109307
	O408	O	0.998432	1.016217	1.091171
	H409	H	1.017389	1.018581	1.103439
	H410	H	1.000953	1.027147	1.090327
	O411	O	1.142271	0.893388	-0.173882
	H412	H	1.148567	0.886808	-0.178459
	H413	H	1.140820	0.886901	-0.166933
	O414	O	0.125363	0.028063	1.002058
	H415	H	0.120771	0.029547	1.000897
	H416	H	0.128020	0.017864	0.990648
	O417	O	0.915449	0.200024	1.017601
	H418	H	0.891459	0.214893	1.002052
	H419	H	0.931446	0.201888	1.025772
	O420	O	0.015097	1.218794	0.205954
	H421	H	0.027028	1.230315	0.221355
	H422	H	0.027851	1.231473	0.198968
	O423	O	1.635848	0.542808	-0.579460
	H424	H	1.645394	0.552195	-0.564848
	H425	H	1.638642	0.526038	-0.585480
	O426	O	0.169427	-0.006407	0.991521
	H427	H	0.178658	-0.004766	1.013168
	H428	H	0.160997	-0.013077	0.976885
	O429	O	0.528748	0.315968	0.315296
	H430	H	0.526771	0.313854	0.311923
	H431	H	0.517670	0.310401	0.306512
