data_Molecule from HDF5

_cell_length_a		16.283933
_cell_length_b		16.266655
_cell_length_c		16.124722
_cell_angle_alpha	90.013085
_cell_angle_beta	90.066009
_cell_angle_gamma	89.826829
_symmetry_space_group_name_H-M	'P 1'
_symmetry_Int_Tables_number		1

loop_
	_symmetry_equiv_pos_as_xyz
	x,y,z

loop_
	_atom_site_label
	_atom_site_type_symbol
	_atom_site_fract_x
	_atom_site_fract_y
	_atom_site_fract_z
	H0	H	0.407074	0.836106	0.718307
	H1	H	0.600241	0.165907	0.720668
	H2	H	0.600964	0.837353	0.292145
	H3	H	0.405675	0.165555	0.293993
	H4	H	0.717312	0.402161	0.840866
	H5	H	0.717140	0.600338	0.170451
	H6	H	0.289743	0.599722	0.840687
	H7	H	0.289305	0.402546	0.170327
	H8	H	0.839666	0.718154	0.405024
	H9	H	0.166312	0.716787	0.604618
	H10	H	0.839942	0.287501	0.605498
	H11	H	0.165573	0.284797	0.404224
	H12	H	0.838062	0.406455	0.717878
	H13	H	0.167282	0.598671	0.719064
	H14	H	0.838621	0.599186	0.292235
	H15	H	0.167313	0.404523	0.293777
	H16	H	0.403580	0.716457	0.841692
	H17	H	0.601697	0.714777	0.171233
	H18	H	0.601521	0.287947	0.840815
	H19	H	0.405295	0.289247	0.171378
	H20	H	0.719361	0.838400	0.406890
	H21	H	0.718066	0.165224	0.607492
	H22	H	0.288127	0.837945	0.605927
	H23	H	0.286798	0.164667	0.405372
	H24	H	0.906140	0.337503	0.219363
	H25	H	0.100232	0.666759	0.218292
	H26	H	0.100080	0.338065	0.793031
	H27	H	0.905669	0.666794	0.792431
	H28	H	0.218575	0.901453	0.342208
	H29	H	0.216289	0.099813	0.671045
	H30	H	0.787285	0.101760	0.341016
	H31	H	0.790771	0.903183	0.671622
	H32	H	0.339842	0.218032	0.905357
	H33	H	0.666646	0.215723	0.104968
	H34	H	0.339716	0.785329	0.107503
	H35	H	0.666167	0.787494	0.909501
	H36	H	0.337989	0.905488	0.219471
	H37	H	0.667238	0.098225	0.219841
	H38	H	0.338387	0.097520	0.793619
	H39	H	0.667109	0.904032	0.794854
	H40	H	0.903760	0.215697	0.340504
	H41	H	0.100723	0.214894	0.671100
	H42	H	0.101836	0.788631	0.341085
	H43	H	0.906315	0.789105	0.670671
	H44	H	0.217270	0.338392	0.906265
	H45	H	0.218441	0.664635	0.105340
	H46	H	0.788186	0.338086	0.105420
	H47	H	0.786177	0.664785	0.904385
	H48	H	0.416369	0.114806	0.595099
	H49	H	0.592820	0.883725	0.607567
	H50	H	0.588963	0.114758	0.416983
	H51	H	0.403307	0.884429	0.421789
	H52	H	0.594982	0.416861	0.121033
	H53	H	0.596361	0.584709	0.889807
	H54	H	0.417801	0.596444	0.122390
	H55	H	0.407128	0.404559	0.885424
	H56	H	0.115910	0.594781	0.425453
	H57	H	0.890100	0.590868	0.589835
	H58	H	0.119530	0.407902	0.597417
	H59	H	0.885033	0.406915	0.410901
	H60	H	0.119498	0.409159	0.598396
	H61	H	0.884396	0.592418	0.608166
	H62	H	0.119647	0.585716	0.404860
	H63	H	0.886548	0.408301	0.415748
	H64	H	0.405123	0.599115	0.127124
	H65	H	0.585552	0.598523	0.889521
	H66	H	0.590551	0.403046	0.124033
	H67	H	0.407572	0.413162	0.888652
	H68	H	0.602449	0.118888	0.418662
	H69	H	0.594005	0.888262	0.591879
	H70	H	0.400576	0.119818	0.594789
	H71	H	0.405574	0.880650	0.403997
	H72	H	0.910917	0.619723	0.103956
	H73	H	0.096140	0.384385	0.098825
	H74	H	0.095057	0.619562	0.912124
	H75	H	0.908514	0.385076	0.913494
	H76	H	0.097428	0.910132	0.624470
	H77	H	0.099780	0.088396	0.388320
	H78	H	0.909171	0.094424	0.623628
	H79	H	0.915376	0.910406	0.389343
	H80	H	0.619514	0.094417	0.913564
	H81	H	0.385446	0.098537	0.099110
	H82	H	0.620573	0.902150	0.097521
	H83	H	0.381214	0.899679	0.908352
	H84	H	0.617100	0.911161	0.095114
	H85	H	0.386633	0.095059	0.097799
	H86	H	0.620653	0.096433	0.912817
	H87	H	0.386948	0.906824	0.923085
	H88	H	0.911681	0.095809	0.623726
	H89	H	0.088598	0.092181	0.390684
	H90	H	0.094905	0.908487	0.624095
	H91	H	0.907166	0.905090	0.385304
	H92	H	0.097843	0.619423	0.914259
	H93	H	0.097173	0.385444	0.097987
	H94	H	0.912995	0.616403	0.093756
	H95	H	0.908647	0.384376	0.911319
	H96	H	0.408812	0.120791	0.608823
	H97	H	0.605966	0.881664	0.599779
	H98	H	0.596045	0.120946	0.406264
	H99	H	0.419299	0.886261	0.414317
	H100	H	0.604680	0.407646	0.126934
	H101	H	0.601787	0.599820	0.884039
	H102	H	0.407596	0.586275	0.122038
	H103	H	0.414994	0.407934	0.888230
	H104	H	0.123809	0.607753	0.408917
	H105	H	0.883396	0.607261	0.596718
	H106	H	0.120358	0.407578	0.598810
	H107	H	0.886381	0.410796	0.412086
	H108	H	0.903385	0.619493	0.096194
	H109	H	0.096803	0.383888	0.099042
	H110	H	0.098249	0.620347	0.911326
	H111	H	0.910839	0.385192	0.912707
	H112	H	0.097227	0.907169	0.625408
	H113	H	0.096974	0.099614	0.385569
	H114	H	0.909349	0.095873	0.624455
	H115	H	0.906397	0.915625	0.388098
	H116	H	0.620116	0.096442	0.914876
	H117	H	0.386472	0.095417	0.101112
	H118	H	0.620535	0.909527	0.104214
	H119	H	0.386427	0.917135	0.908347
	C120	C	0.381174	0.009765	0.628037
	C121	C	0.625590	0.992711	0.628936
	C122	C	0.624456	0.010120	0.385186
	C123	C	0.381100	0.992507	0.384968
	C124	C	0.624950	0.380492	0.014489
	C125	C	0.623652	0.622644	0.997152
	C126	C	0.381679	0.622677	0.014661
	C127	C	0.381488	0.379992	0.996673
	C128	C	0.011411	0.624373	0.383880
	C129	C	0.994247	0.624378	0.626946
	C130	C	0.011525	0.380334	0.626788
	C131	C	0.994311	0.379938	0.384192
	C132	C	0.881174	0.510276	0.127102
	C133	C	0.125048	0.493060	0.127463
	C134	C	0.124864	0.511094	0.884094
	C135	C	0.880898	0.493490	0.883801
	C136	C	0.124636	0.880427	0.515162
	C137	C	0.123649	0.122368	0.497374
	C138	C	0.880574	0.124267	0.514533
	C139	C	0.881921	0.881656	0.497147
	C140	C	0.511586	0.123877	0.884711
	C141	C	0.494357	0.124174	0.128213
	C142	C	0.511034	0.879493	0.128236
	C143	C	0.493788	0.879646	0.885274
	C144	C	0.385641	0.885639	0.681562
	C145	C	0.621857	0.116664	0.683796
	C146	C	0.621643	0.886244	0.330045
	C147	C	0.384167	0.116394	0.330599
	C148	C	0.679336	0.382298	0.890059
	C149	C	0.679157	0.620379	0.121204
	C150	C	0.327026	0.620115	0.890162
	C151	C	0.326805	0.382215	0.121086
	C152	C	0.888283	0.680052	0.385080
	C153	C	0.117644	0.678605	0.624609
	C154	C	0.888496	0.325562	0.625271
	C155	C	0.117143	0.323680	0.385415
	C156	C	0.887570	0.384669	0.681231
	C157	C	0.118062	0.620177	0.681543
	C158	C	0.887739	0.620566	0.329322
	C159	C	0.118065	0.383282	0.330326
	C160	C	0.383432	0.678317	0.890588
	C161	C	0.621805	0.677366	0.121588
	C162	C	0.621779	0.325597	0.890103
	C163	C	0.384645	0.326150	0.121613
	C164	C	0.680587	0.886923	0.386827
	C165	C	0.680122	0.116396	0.627199
	C166	C	0.326395	0.886447	0.625802
	C167	C	0.325334	0.115878	0.386208
	C168	C	0.885150	0.386531	0.181669
	C169	C	0.121441	0.617028	0.181761
	C170	C	0.121277	0.387097	0.830058
	C171	C	0.884242	0.617249	0.829266
	C172	C	0.180193	0.882029	0.391142
	C173	C	0.178689	0.120142	0.621822
	C174	C	0.825073	0.122157	0.390524
	C175	C	0.828303	0.883830	0.621999
	C176	C	0.388549	0.179387	0.885975
	C177	C	0.617731	0.178380	0.125838
	C178	C	0.388331	0.823925	0.126861
	C179	C	0.617249	0.825044	0.888433
	C180	C	0.387405	0.883774	0.182378
	C181	C	0.617978	0.120047	0.182883
	C182	C	0.387600	0.119425	0.830710
	C183	C	0.617629	0.882883	0.831648
	C184	C	0.883171	0.178641	0.390178
	C185	C	0.121486	0.177546	0.621614
	C186	C	0.122118	0.825944	0.390530
	C187	C	0.885105	0.826405	0.621346
	C188	C	0.179573	0.387339	0.886499
	C189	C	0.179879	0.616335	0.125340
	C190	C	0.826309	0.386948	0.125314
	C191	C	0.824958	0.616287	0.884979
	C192	C	0.402270	0.096206	0.606045
	C193	C	0.604046	0.906923	0.606393
	C194	C	0.602353	0.095841	0.407464
	C195	C	0.402883	0.906260	0.406837
	C196	C	0.603296	0.402676	0.101489
	C197	C	0.601204	0.600809	0.910200
	C198	C	0.403710	0.600431	0.101526
	C199	C	0.403408	0.402084	0.909853
	C200	C	0.097474	0.602566	0.406347
	C201	C	0.908151	0.603261	0.604922
	C202	C	0.097519	0.401755	0.604799
	C203	C	0.908223	0.402204	0.406499
	C204	C	0.902557	0.596334	0.104664
	C205	C	0.103337	0.406914	0.105055
	C206	C	0.103374	0.597471	0.906062
	C207	C	0.902967	0.407150	0.905924
	C208	C	0.102917	0.902113	0.602060
	C209	C	0.101686	0.099930	0.410632
	C210	C	0.903184	0.102004	0.601513
	C211	C	0.903384	0.903857	0.410115
	C212	C	0.597851	0.102095	0.907015
	C213	C	0.408339	0.102802	0.105914
	C214	C	0.597214	0.901045	0.105752
	C215	C	0.407312	0.901229	0.906995
	Zn216	Zn	0.503154	0.001221	0.756774
	Zn217	Zn	0.502319	0.001433	0.256513
	Zn218	Zn	0.752304	0.501719	0.005393
	Zn219	Zn	0.253726	0.501343	0.005994
	Zn220	Zn	0.002767	0.753689	0.505254
	Zn221	Zn	0.002939	0.251171	0.505493
	Zn222	Zn	0.003020	0.502083	0.755697
	Zn223	Zn	0.003202	0.501861	0.255673
	Zn224	Zn	0.502650	0.750865	0.006299
	Zn225	Zn	0.503049	0.253123	0.006250
	Zn226	Zn	0.753800	0.002091	0.506840
	Zn227	Zn	0.252374	0.001483	0.506092
	N228	N	0.419287	0.963323	0.683009
	N229	N	0.588629	0.038998	0.684994
	N230	N	0.587416	0.963715	0.328871
	N231	N	0.418224	0.038909	0.329666
	N232	N	0.681288	0.415693	0.968364
	N233	N	0.680246	0.586863	0.042904
	N234	N	0.325756	0.586351	0.968447
	N235	N	0.324808	0.415029	0.042528
	N236	N	0.966214	0.682639	0.418153
	N237	N	0.039800	0.681235	0.591316
	N238	N	0.966189	0.323009	0.592147
	N239	N	0.039180	0.321552	0.418241
	N240	N	0.965253	0.417889	0.682635
	N241	N	0.040551	0.586919	0.682993
	N242	N	0.965200	0.586605	0.328585
	N243	N	0.040719	0.417600	0.329394
	N244	N	0.417013	0.679691	0.968844
	N245	N	0.588111	0.679015	0.043380
	N246	N	0.588840	0.324185	0.968721
	N247	N	0.417901	0.324644	0.043224
	N248	N	0.682326	0.964606	0.420350
	N249	N	0.682538	0.038535	0.593691
	N250	N	0.323616	0.964501	0.593033
	N251	N	0.323195	0.037907	0.419420
	N252	N	0.918460	0.464091	0.182904
	N253	N	0.087851	0.539455	0.182891
	N254	N	0.087905	0.464842	0.828490
	N255	N	0.918339	0.539745	0.828524
	N256	N	0.182065	0.914966	0.469699
	N257	N	0.180246	0.086652	0.543506
	N258	N	0.823514	0.088987	0.469026
	N259	N	0.825968	0.917236	0.543493
	N260	N	0.466469	0.181902	0.919001
	N261	N	0.539871	0.180917	0.092487
	N262	N	0.466202	0.821295	0.093882
	N263	N	0.539209	0.823140	0.921132
	N264	N	0.464811	0.917530	0.183241
	N265	N	0.540212	0.087070	0.184683
	N266	N	0.465203	0.085785	0.829624
	N267	N	0.539878	0.916318	0.829705
	N268	N	0.916889	0.180009	0.468518
	N269	N	0.087931	0.178948	0.543347
	N270	N	0.088241	0.825009	0.468540
	N271	N	0.917884	0.825144	0.542799
	N272	N	0.182046	0.465448	0.919384
	N273	N	0.182452	0.538276	0.092578
	N274	N	0.823835	0.464812	0.091781
	N275	N	0.822847	0.538321	0.918075
	O276	O	0.535062	0.512781	0.462519
	H277	H	0.533914	0.510383	0.466261
	H278	H	0.539951	0.513661	0.456781
	O279	O	-0.040711	0.040352	0.014282
	H280	H	-0.046348	0.040896	0.009548
	H281	H	-0.034196	0.040820	0.017391
	O282	O	0.497096	0.529021	0.488043
	H283	H	0.503926	0.534231	0.488211
	H284	H	0.494054	0.532115	0.500824
	O285	O	0.429272	0.458217	0.483136
	H286	H	0.425576	0.462783	0.480384
	H287	H	0.424888	0.458314	0.484460
	O288	O	0.960710	0.018878	0.012864
	H289	H	0.960127	0.012917	0.019367
	H290	H	0.961181	0.021871	0.012989
	O291	O	-0.449254	0.467980	-0.534057
	H292	H	-0.448506	0.457165	-0.534540
	H293	H	-0.445646	0.468862	-0.539893
	O294	O	0.543370	0.528957	0.489609
	H295	H	0.548470	0.523052	0.496114
	H296	H	0.536649	0.521892	0.486401
	O297	O	0.532602	1.481071	-0.455512
	H298	H	0.524511	1.481091	-0.460022
	H299	H	0.540310	1.474080	-0.448742
	O300	O	0.949672	0.018604	1.025457
	H301	H	0.942879	0.018735	1.029844
	H302	H	0.948171	0.022318	1.021959
	O303	O	0.510958	0.513142	0.515304
	H304	H	0.510196	0.522556	0.513871
	H305	H	0.512852	0.513502	0.520494
	O306	O	-0.055554	1.042159	1.030528
	H307	H	-0.054794	1.042578	1.031027
	H308	H	-0.053883	1.048332	1.030159
	O309	O	0.504552	0.488018	0.508760
	H310	H	0.506548	0.491098	0.509898
	H311	H	0.497554	0.494104	0.502858
