data_Molecule from HDF5

_cell_length_a		16.176333
_cell_length_b		16.183812
_cell_length_c		16.339887
_cell_angle_alpha	89.838716
_cell_angle_beta	89.959656
_cell_angle_gamma	89.900045
_symmetry_space_group_name_H-M	'P 1'
_symmetry_Int_Tables_number		1

loop_
	_symmetry_equiv_pos_as_xyz
	x,y,z

loop_
	_atom_site_label
	_atom_site_type_symbol
	_atom_site_fract_x
	_atom_site_fract_y
	_atom_site_fract_z
	H0	H	0.397762	0.836165	0.710211
	H1	H	0.597965	0.163981	0.707660
	H2	H	0.598031	0.836183	0.279616
	H3	H	0.397242	0.163449	0.277641
	H4	H	0.713384	0.403004	0.829737
	H5	H	0.711889	0.596211	0.157844
	H6	H	0.283080	0.599385	0.830811
	H7	H	0.284550	0.400906	0.157571
	H8	H	0.833679	0.713019	0.396211
	H9	H	0.163170	0.711659	0.590737
	H10	H	0.832105	0.287771	0.591238
	H11	H	0.163056	0.287721	0.398240
	H12	H	0.834191	0.399155	0.710202
	H13	H	0.162839	0.598559	0.706931
	H14	H	0.834167	0.599320	0.279095
	H15	H	0.161754	0.398458	0.279023
	H16	H	0.400140	0.716225	0.830657
	H17	H	0.595291	0.712733	0.158091
	H18	H	0.597819	0.285786	0.829799
	H19	H	0.401575	0.285351	0.157484
	H20	H	0.711030	0.834670	0.397125
	H21	H	0.709963	0.164848	0.589435
	H22	H	0.286123	0.834159	0.590720
	H23	H	0.285537	0.164691	0.396600
	H24	H	0.899186	0.335980	0.208943
	H25	H	0.097762	0.663300	0.208152
	H26	H	0.098390	0.334938	0.779790
	H27	H	0.899082	0.663630	0.778516
	H28	H	0.211430	0.903504	0.329907
	H29	H	0.211753	0.096170	0.657893
	H30	H	0.784447	0.098056	0.330204
	H31	H	0.783191	0.901272	0.656901
	H32	H	0.333034	0.213200	0.897275
	H33	H	0.663473	0.210865	0.089287
	H34	H	0.332812	0.788708	0.089645
	H35	H	0.664321	0.788822	0.898142
	H36	H	0.333996	0.900774	0.208031
	H37	H	0.663054	0.098549	0.207878
	H38	H	0.334127	0.100091	0.779195
	H39	H	0.662863	0.901086	0.778826
	H40	H	0.900069	0.213998	0.330390
	H41	H	0.094712	0.213058	0.657719
	H42	H	0.097193	0.784980	0.330374
	H43	H	0.899897	0.784447	0.656984
	H44	H	0.211891	0.334779	0.897684
	H45	H	0.209281	0.665165	0.089749
	H46	H	0.786013	0.334768	0.090648
	H47	H	0.785698	0.664779	0.896195
	H48	H	0.406926	0.117171	0.588763
	H49	H	0.583147	0.884496	0.586707
	H50	H	0.583639	0.111912	0.414709
	H51	H	0.394047	0.879696	0.404695
	H52	H	0.581199	0.395357	0.109887
	H53	H	0.583671	0.596264	0.879172
	H54	H	0.401967	0.592256	0.110738
	H55	H	0.397594	0.408988	0.876040
	H56	H	0.116916	0.597631	0.402140
	H57	H	0.876623	0.601008	0.593593
	H58	H	0.114250	0.407323	0.583966
	H59	H	0.879957	0.404089	0.403961
	H60	H	0.115747	0.408647	0.590961
	H61	H	0.884046	0.593811	0.574901
	H62	H	0.113652	0.587629	0.403871
	H63	H	0.881921	0.412400	0.401394
	H64	H	0.406930	0.591957	0.108921
	H65	H	0.597641	0.600465	0.874002
	H66	H	0.605798	0.401033	0.115272
	H67	H	0.410161	0.412944	0.881635
	H68	H	0.608750	0.123498	0.398321
	H69	H	0.594171	0.882626	0.581988
	H70	H	0.404420	0.117710	0.585240
	H71	H	0.408799	0.879228	0.387617
	H72	H	0.904295	0.618457	0.089766
	H73	H	0.096550	0.381797	0.084076
	H74	H	0.084800	0.616163	0.893921
	H75	H	0.902834	0.380151	0.895866
	H76	H	0.099203	0.909625	0.611267
	H77	H	0.089804	0.096340	0.377621
	H78	H	0.908412	0.088550	0.607598
	H79	H	0.904948	0.905018	0.376861
	H80	H	0.615795	0.088861	0.895785
	H81	H	0.382702	0.089529	0.082826
	H82	H	0.616665	0.905327	0.084781
	H83	H	0.380937	0.915683	0.893665
	H84	H	0.615687	0.909431	0.089484
	H85	H	0.379606	0.089293	0.091050
	H86	H	0.617439	0.097873	0.897100
	H87	H	0.377504	0.899489	0.898412
	H88	H	0.905442	0.100253	0.612310
	H89	H	0.095229	0.094752	0.377324
	H90	H	0.085366	0.908832	0.606987
	H91	H	0.902499	0.906843	0.376953
	H92	H	0.089402	0.614258	0.906161
	H93	H	0.091787	0.379284	0.094055
	H94	H	0.908761	0.616756	0.087689
	H95	H	0.911822	0.383731	0.899317
	H96	H	0.403201	0.117921	0.588262
	H97	H	0.592296	0.880250	0.592916
	H98	H	0.580648	0.119331	0.383402
	H99	H	0.415301	0.886792	0.408251
	H100	H	0.590230	0.419067	0.104750
	H101	H	0.595562	0.586261	0.879277
	H102	H	0.404978	0.596752	0.110892
	H103	H	0.408500	0.399992	0.876472
	H104	H	0.118219	0.589984	0.394027
	H105	H	0.881669	0.580118	0.592089
	H106	H	0.116461	0.402316	0.587969
	H107	H	0.877916	0.406046	0.395599
	H108	H	0.904242	0.617751	0.084533
	H109	H	0.085621	0.384231	0.085826
	H110	H	0.097593	0.620212	0.896738
	H111	H	0.903307	0.382201	0.905288
	H112	H	0.091817	0.897099	0.613247
	H113	H	0.091123	0.090768	0.378094
	H114	H	0.896405	0.091157	0.611519
	H115	H	0.904822	0.907558	0.377130
	H116	H	0.614989	0.092281	0.903900
	H117	H	0.378476	0.096375	0.087462
	H118	H	0.617182	0.903813	0.090129
	H119	H	0.384941	0.910506	0.909556
	C120	C	0.376728	0.008448	0.615355
	C121	C	0.618743	0.991277	0.614660
	C122	C	0.619439	0.008898	0.371788
	C123	C	0.377098	0.990966	0.372042
	C124	C	0.620837	0.377575	0.001664
	C125	C	0.620228	0.621822	0.985713
	C126	C	0.376233	0.622599	0.002519
	C127	C	0.376938	0.378138	0.985869
	C128	C	0.007172	0.620664	0.372147
	C129	C	0.989837	0.620155	0.614799
	C130	C	0.006267	0.378081	0.615587
	C131	C	0.988717	0.378599	0.372533
	C132	C	0.877210	0.508649	0.115300
	C133	C	0.119529	0.490760	0.115698
	C134	C	0.119852	0.507999	0.871850
	C135	C	0.877349	0.490987	0.871867
	C136	C	0.120233	0.877340	0.501983
	C137	C	0.119934	0.121715	0.485861
	C138	C	0.875330	0.121663	0.502338
	C139	C	0.875928	0.877843	0.485100
	C140	C	0.507067	0.121911	0.871475
	C141	C	0.489533	0.120040	0.114701
	C142	C	0.507375	0.878468	0.115638
	C143	C	0.490086	0.879321	0.872137
	C144	C	0.378172	0.884802	0.671536
	C145	C	0.617145	0.115177	0.669299
	C146	C	0.617583	0.884800	0.317820
	C147	C	0.378324	0.114664	0.316672
	C148	C	0.675674	0.381489	0.878574
	C149	C	0.674559	0.617877	0.109032
	C150	C	0.321312	0.620032	0.879377
	C151	C	0.322298	0.380469	0.108846
	C152	C	0.883163	0.675796	0.375034
	C153	C	0.113691	0.674844	0.611580
	C154	C	0.881863	0.324318	0.612501
	C155	C	0.113371	0.324295	0.376641
	C156	C	0.882823	0.379670	0.671554
	C157	C	0.113686	0.618318	0.669340
	C158	C	0.883429	0.619266	0.316925
	C159	C	0.112828	0.379623	0.317538
	C160	C	0.379097	0.678098	0.879471
	C161	C	0.616392	0.675432	0.109117
	C162	C	0.618074	0.323417	0.878787
	C163	C	0.380163	0.322673	0.108632
	C164	C	0.674078	0.884243	0.375823
	C165	C	0.672861	0.115511	0.610745
	C166	C	0.322926	0.883789	0.612089
	C167	C	0.322431	0.115259	0.375521
	C168	C	0.879159	0.384878	0.170519
	C169	C	0.117681	0.614469	0.170368
	C170	C	0.118378	0.384073	0.817545
	C171	C	0.879348	0.614907	0.816786
	C172	C	0.174521	0.881628	0.378788
	C173	C	0.174157	0.117633	0.609011
	C174	C	0.821259	0.118798	0.379189
	C175	C	0.821019	0.880548	0.608275
	C176	C	0.382479	0.176274	0.875704
	C177	C	0.614387	0.173599	0.110471
	C178	C	0.382553	0.824780	0.111674
	C179	C	0.614533	0.825253	0.875979
	C180	C	0.383062	0.880532	0.170246
	C181	C	0.613935	0.117974	0.169489
	C182	C	0.382947	0.119971	0.817186
	C183	C	0.613935	0.881240	0.817098
	C184	C	0.879287	0.176138	0.379044
	C185	C	0.116302	0.175800	0.608865
	C186	C	0.117185	0.823321	0.378990
	C187	C	0.878743	0.822393	0.608241
	C188	C	0.174844	0.384074	0.875987
	C189	C	0.172844	0.615551	0.111203
	C190	C	0.823430	0.384105	0.111581
	C191	C	0.822860	0.615338	0.875143
	C192	C	0.398493	0.095167	0.593808
	C193	C	0.596402	0.904750	0.593438
	C194	C	0.597579	0.095758	0.392662
	C195	C	0.399313	0.904225	0.393908
	C196	C	0.599043	0.398898	0.087682
	C197	C	0.598779	0.600612	0.899671
	C198	C	0.398088	0.600137	0.088093
	C199	C	0.398930	0.400741	0.900117
	C200	C	0.093968	0.598457	0.393827
	C201	C	0.902920	0.597961	0.593218
	C202	C	0.093139	0.399699	0.594065
	C203	C	0.902237	0.400989	0.393874
	C204	C	0.898959	0.595352	0.093602
	C205	C	0.097810	0.404073	0.094251
	C206	C	0.097242	0.594694	0.892683
	C207	C	0.899408	0.404416	0.893619
	C208	C	0.098594	0.898832	0.588205
	C209	C	0.098409	0.100308	0.399822
	C210	C	0.897125	0.099809	0.588266
	C211	C	0.897689	0.900015	0.399288
	C212	C	0.593871	0.099673	0.892629
	C213	C	0.402801	0.098281	0.093352
	C214	C	0.594064	0.899906	0.094499
	C215	C	0.403403	0.902062	0.893994
	Zn216	Zn	0.498159	0.000470	0.743301
	Zn217	Zn	0.498127	-0.000421	0.243841
	Zn218	Zn	0.749522	0.500089	-0.006026
	Zn219	Zn	0.247518	0.500081	-0.005507
	Zn220	Zn	-0.001926	0.748748	0.493753
	Zn221	Zn	-0.002727	0.250467	0.493779
	Zn222	Zn	-0.001445	0.499279	0.743309
	Zn223	Zn	-0.001400	0.499737	0.244004
	Zn224	Zn	0.498569	0.751136	-0.005987
	Zn225	Zn	0.498558	0.248748	-0.006292
	Zn226	Zn	0.746518	-0.000271	0.493653
	Zn227	Zn	0.249236	-0.000714	0.493571
	N228	N	0.410900	0.963325	0.673722
	N229	N	0.583889	0.036910	0.671708
	N230	N	0.584530	0.963192	0.315063
	N231	N	0.411437	0.036266	0.314304
	N232	N	0.677623	0.414382	0.956157
	N233	N	0.676901	0.585285	0.031289
	N234	N	0.319359	0.586243	0.956803
	N235	N	0.320171	0.414224	0.031569
	N236	N	0.961019	0.676612	0.408827
	N237	N	0.035525	0.675988	0.578384
	N238	N	0.959597	0.323226	0.578440
	N239	N	0.035362	0.323513	0.410092
	N240	N	0.961247	0.412357	0.673600
	N241	N	0.035572	0.584957	0.671321
	N242	N	0.961617	0.585558	0.315176
	N243	N	0.034423	0.412672	0.314856
	N244	N	0.412383	0.679889	0.956835
	N245	N	0.583511	0.678201	0.031476
	N246	N	0.584474	0.321037	0.956179
	N247	N	0.413566	0.321516	0.031177
	N248	N	0.675284	0.962431	0.408716
	N249	N	0.674035	0.037587	0.577580
	N250	N	0.322005	0.961552	0.577916
	N251	N	0.321960	0.037357	0.409517
	N252	N	0.912013	0.463186	0.172962
	N253	N	0.085255	0.535998	0.173109
	N254	N	0.084852	0.462101	0.814994
	N255	N	0.912608	0.536633	0.814599
	N256	N	0.176487	0.914527	0.456328
	N257	N	0.176512	0.084687	0.531490
	N258	N	0.818798	0.085547	0.456712
	N259	N	0.819155	0.914196	0.530826
	N260	N	0.460708	0.177604	0.908713
	N261	N	0.536270	0.175125	0.077266
	N262	N	0.460494	0.823315	0.078438
	N263	N	0.536430	0.823935	0.909428
	N264	N	0.461741	0.913017	0.173129
	N265	N	0.535263	0.085682	0.172469
	N266	N	0.461255	0.086930	0.814479
	N267	N	0.535414	0.914185	0.814869
	N268	N	0.911958	0.178223	0.456740
	N269	N	0.083532	0.178444	0.531230
	N270	N	0.084256	0.820707	0.456693
	N271	N	0.912314	0.820797	0.530806
	N272	N	0.175633	0.462040	0.909332
	N273	N	0.174154	0.537576	0.077863
	N274	N	0.822044	0.462127	0.078033
	N275	N	0.821935	0.537466	0.908954
	O276	O	0.437698	-0.514960	1.504793
	H277	H	0.434510	-0.515733	1.505315
	H278	H	0.436966	-0.516411	1.506318
	O279	O	0.437694	0.502391	0.536231
	H280	H	0.433626	0.496750	0.531774
	H281	H	0.428182	0.505206	0.538248
	O282	O	1.444547	1.509420	0.529413
	H283	H	1.442702	1.513767	0.532515
	H284	H	1.444797	1.510065	0.533213
	O285	O	0.459385	0.489168	0.523730
	H286	H	0.464196	0.486877	0.519414
	H287	H	0.464206	0.493498	0.525322
