data_Molecule from HDF5

_cell_length_a		16.272951
_cell_length_b		16.335459
_cell_length_c		16.496257
_cell_angle_alpha	89.946530
_cell_angle_beta	90.026309
_cell_angle_gamma	90.330192
_symmetry_space_group_name_H-M	'P 1'
_symmetry_Int_Tables_number		1

loop_
	_symmetry_equiv_pos_as_xyz
	x,y,z

loop_
	_atom_site_label
	_atom_site_type_symbol
	_atom_site_fract_x
	_atom_site_fract_y
	_atom_site_fract_z
	H0	H	0.390214	0.839359	0.727764
	H1	H	0.610426	0.156238	0.728605
	H2	H	0.606403	0.841046	0.281554
	H3	H	0.396875	0.158132	0.286189
	H4	H	0.722083	0.390500	0.845701
	H5	H	0.717824	0.601400	0.161841
	H6	H	0.276856	0.604159	0.844574
	H7	H	0.280780	0.398301	0.162582
	H8	H	0.836744	0.715046	0.400942
	H9	H	0.158929	0.718927	0.606084
	H10	H	0.838449	0.276027	0.607603
	H11	H	0.159854	0.282385	0.402348
	H12	H	0.840171	0.388885	0.727084
	H13	H	0.157898	0.607835	0.725188
	H14	H	0.838244	0.601526	0.282891
	H15	H	0.158868	0.396564	0.285475
	H16	H	0.390210	0.722431	0.845717
	H17	H	0.603575	0.719472	0.160640
	H18	H	0.604902	0.274864	0.845717
	H19	H	0.395589	0.280172	0.162036
	H20	H	0.713092	0.837246	0.404759
	H21	H	0.722183	0.157963	0.608224
	H22	H	0.277279	0.837512	0.609630
	H23	H	0.283287	0.158540	0.405007
	H24	H	0.892992	0.337578	0.223188
	H25	H	0.105709	0.657760	0.225447
	H26	H	0.105538	0.340368	0.781356
	H27	H	0.888119	0.655538	0.777458
	H28	H	0.218387	0.894359	0.345207
	H29	H	0.220795	0.102698	0.662594
	H30	H	0.781248	0.100200	0.344044
	H31	H	0.773502	0.888961	0.660371
	H32	H	0.337002	0.215128	0.902106
	H33	H	0.658181	0.220591	0.108399
	H34	H	0.337941	0.778892	0.107725
	H35	H	0.657323	0.776538	0.896948
	H36	H	0.338901	0.894100	0.224197
	H37	H	0.659226	0.106294	0.225000
	H38	H	0.340668	0.106873	0.780498
	H39	H	0.656582	0.888209	0.779448
	H40	H	0.896761	0.215086	0.343571
	H41	H	0.107420	0.222313	0.660338
	H42	H	0.100044	0.780141	0.343532
	H43	H	0.888213	0.771750	0.659851
	H44	H	0.213715	0.337329	0.903529
	H45	H	0.217363	0.659684	0.105781
	H46	H	0.778109	0.337820	0.105768
	H47	H	0.776365	0.657266	0.896698
	H48	H	0.406595	0.111558	0.589784
	H49	H	0.580400	0.885115	0.598844
	H50	H	0.593212	0.116137	0.412438
	H51	H	0.410159	0.883219	0.415556
	H52	H	0.585193	0.405214	0.116574
	H53	H	0.581222	0.588035	0.891610
	H54	H	0.406172	0.591472	0.117249
	H55	H	0.407921	0.410289	0.889732
	H56	H	0.111645	0.589616	0.417361
	H57	H	0.884311	0.578548	0.597952
	H58	H	0.112666	0.405445	0.587687
	H59	H	0.880947	0.408481	0.407541
	H60	H	0.109663	0.416735	0.590403
	H61	H	0.882742	0.591864	0.589860
	H62	H	0.112608	0.584309	0.410885
	H63	H	0.880612	0.400569	0.412758
	H64	H	0.406958	0.585246	0.114914
	H65	H	0.588795	0.590958	0.888241
	H66	H	0.591715	0.410854	0.116341
	H67	H	0.409072	0.404185	0.888655
	H68	H	0.586253	0.114447	0.410080
	H69	H	0.580651	0.888866	0.587253
	H70	H	0.411733	0.113427	0.599261
	H71	H	0.407770	0.882153	0.412652
	H72	H	0.915370	0.610404	0.094849
	H73	H	0.096457	0.381614	0.094417
	H74	H	0.087541	0.611849	0.916925
	H75	H	0.905678	0.381149	0.909572
	H76	H	0.087278	0.909248	0.616764
	H77	H	0.093216	0.091833	0.388431
	H78	H	0.905278	0.084757	0.616978
	H79	H	0.906591	0.899304	0.387537
	H80	H	0.610060	0.083518	0.917772
	H81	H	0.383514	0.085757	0.096871
	H82	H	0.613460	0.907672	0.090325
	H83	H	0.386490	0.909851	0.921173
	H84	H	0.612008	0.914994	0.091663
	H85	H	0.381863	0.090187	0.099929
	H86	H	0.613561	0.085551	0.913521
	H87	H	0.387898	0.916606	0.915710
	H88	H	0.915412	0.082151	0.614082
	H89	H	0.092197	0.084840	0.391350
	H90	H	0.085956	0.908405	0.615139
	H91	H	0.901891	0.911593	0.389863
	H92	H	0.088455	0.614498	0.911744
	H93	H	0.086594	0.381995	0.103363
	H94	H	0.906776	0.611449	0.089099
	H95	H	0.920810	0.387661	0.912300
	H96	H	0.417057	0.108157	0.591337
	H97	H	0.591066	0.883903	0.591973
	H98	H	0.589057	0.112561	0.417113
	H99	H	0.410954	0.883092	0.411628
	H100	H	0.584169	0.412957	0.113454
	H101	H	0.588038	0.582526	0.891382
	H102	H	0.412048	0.588862	0.115381
	H103	H	0.403344	0.406374	0.887496
	H104	H	0.115728	0.591881	0.410082
	H105	H	0.889321	0.579342	0.583163
	H106	H	0.115126	0.410045	0.598581
	H107	H	0.884215	0.408146	0.416147
	H108	H	0.907393	0.615085	0.098165
	H109	H	0.084226	0.385740	0.091141
	H110	H	0.082889	0.612334	0.913768
	H111	H	0.909200	0.388397	0.924121
	H112	H	0.086619	0.907258	0.617220
	H113	H	0.086151	0.090085	0.391014
	H114	H	0.913698	0.091948	0.617638
	H115	H	0.913817	0.909294	0.393814
	H116	H	0.613064	0.088725	0.917926
	H117	H	0.382698	0.090923	0.094683
	H118	H	0.614429	0.910334	0.097262
	H119	H	0.382919	0.909269	0.913079
	C120	C	0.377856	0.006076	0.625998
	C121	C	0.619704	0.990542	0.625709
	C122	C	0.620238	0.008395	0.382138
	C123	C	0.378684	0.988899	0.383385
	C124	C	0.619684	0.376440	0.011420
	C125	C	0.619010	0.619171	0.994801
	C126	C	0.375408	0.621633	0.011661
	C127	C	0.376508	0.377153	0.994418
	C128	C	0.006970	0.619114	0.381772
	C129	C	0.990402	0.618339	0.623470
	C130	C	0.007092	0.376850	0.624558
	C131	C	0.989022	0.376358	0.381877
	C132	C	0.877327	0.506705	0.125277
	C133	C	0.120788	0.489610	0.126389
	C134	C	0.118553	0.507287	0.882340
	C135	C	0.877148	0.489776	0.881392
	C136	C	0.118801	0.876771	0.511616
	C137	C	0.122352	0.120733	0.495148
	C138	C	0.879195	0.117811	0.511472
	C139	C	0.874636	0.874270	0.494430
	C140	C	0.506899	0.118544	0.883694
	C141	C	0.489366	0.121073	0.126908
	C142	C	0.507463	0.878119	0.125052
	C143	C	0.490033	0.877840	0.882759
	C144	C	0.373571	0.886491	0.686828
	C145	C	0.626230	0.109160	0.687351
	C146	C	0.622922	0.888214	0.322362
	C147	C	0.377923	0.110010	0.325764
	C148	C	0.680936	0.373197	0.892689
	C149	C	0.678468	0.620483	0.114052
	C150	C	0.316155	0.623108	0.892464
	C151	C	0.319207	0.378059	0.114575
	C152	C	0.885113	0.676418	0.381415
	C153	C	0.110714	0.679359	0.625174
	C154	C	0.886869	0.315609	0.626713
	C155	C	0.111235	0.320272	0.382496
	C156	C	0.887549	0.372185	0.685755
	C157	C	0.110130	0.623795	0.684551
	C158	C	0.885782	0.619765	0.323001
	C159	C	0.110754	0.377143	0.324596
	C160	C	0.372873	0.681977	0.892930
	C161	C	0.621587	0.679092	0.113484
	C162	C	0.622795	0.315381	0.892771
	C163	C	0.376140	0.319204	0.114327
	C164	C	0.676151	0.886344	0.383589
	C165	C	0.682350	0.109723	0.627707
	C166	C	0.317316	0.885519	0.627915
	C167	C	0.321735	0.110367	0.385023
	C168	C	0.874587	0.385826	0.183691
	C169	C	0.123100	0.609873	0.185401
	C170	C	0.122058	0.387654	0.822308
	C171	C	0.871941	0.608378	0.818884
	C172	C	0.178585	0.875628	0.392516
	C173	C	0.181416	0.121853	0.614652
	C174	C	0.820241	0.119028	0.391726
	C175	C	0.813976	0.871329	0.613241
	C176	C	0.385953	0.177269	0.882227
	C177	C	0.610452	0.180986	0.127205
	C178	C	0.386536	0.818254	0.126631
	C179	C	0.609587	0.816546	0.879255
	C180	C	0.386820	0.875636	0.184545
	C181	C	0.610705	0.124004	0.185405
	C182	C	0.387643	0.122903	0.822102
	C183	C	0.609262	0.872614	0.820706
	C184	C	0.878057	0.176393	0.391597
	C185	C	0.125015	0.181451	0.613467
	C186	C	0.119573	0.818739	0.391739
	C187	C	0.870915	0.812555	0.612764
	C188	C	0.176334	0.386255	0.882827
	C189	C	0.178975	0.610928	0.125952
	C190	C	0.817428	0.385853	0.125375
	C191	C	0.815864	0.609258	0.878197
	C192	C	0.404233	0.089242	0.600795
	C193	C	0.592095	0.907607	0.600046
	C194	C	0.596465	0.092525	0.406237
	C195	C	0.402731	0.904645	0.406587
	C196	C	0.594440	0.402126	0.093924
	C197	C	0.593635	0.594239	0.911935
	C198	C	0.401011	0.596135	0.094446
	C199	C	0.400162	0.400276	0.910500
	C200	C	0.091348	0.595426	0.405624
	C201	C	0.906978	0.591041	0.597847
	C202	C	0.090697	0.403228	0.599541
	C203	C	0.904082	0.399120	0.405385
	C204	C	0.902616	0.590433	0.101242
	C205	C	0.096249	0.405246	0.102931
	C206	C	0.093322	0.591039	0.906934
	C207	C	0.904128	0.407357	0.907840
	C208	C	0.093790	0.901186	0.594673
	C209	C	0.097744	0.095853	0.411959
	C210	C	0.903989	0.093303	0.594533
	C211	C	0.900194	0.899458	0.411998
	C212	C	0.590496	0.093010	0.909006
	C213	C	0.404735	0.096117	0.103855
	C214	C	0.591309	0.903568	0.100285
	C215	C	0.407183	0.904525	0.909039
	Zn216	Zn	0.498980	-0.001573	0.755054
	Zn217	Zn	0.499658	-0.001372	0.254102
	Zn218	Zn	0.748924	0.498488	0.003163
	Zn219	Zn	0.247268	0.499142	0.002949
	Zn220	Zn	-0.002139	0.746954	0.502811
	Zn221	Zn	-0.001294	0.248056	0.503074
	Zn222	Zn	-0.001042	0.498556	0.752863
	Zn223	Zn	-0.001724	0.497828	0.253929
	Zn224	Zn	0.498217	0.749486	0.003183
	Zn225	Zn	0.497984	0.247181	0.003160
	Zn226	Zn	0.748042	-0.001729	0.503397
	Zn227	Zn	0.249955	-0.003173	0.504471
	N228	N	0.410524	0.962435	0.685870
	N229	N	0.588127	0.033914	0.686131
	N230	N	0.588981	0.965109	0.321297
	N231	N	0.412684	0.033631	0.324606
	N232	N	0.679230	0.410290	0.967331
	N233	N	0.677181	0.584124	0.038919
	N234	N	0.317933	0.586171	0.967177
	N235	N	0.319091	0.413131	0.038865
	N236	N	0.961316	0.676200	0.417196
	N237	N	0.035164	0.675954	0.588071
	N238	N	0.962235	0.318367	0.589297
	N239	N	0.034653	0.319867	0.417607
	N240	N	0.963156	0.409629	0.684432
	N241	N	0.034066	0.586720	0.683720
	N242	N	0.962488	0.584984	0.323075
	N243	N	0.033663	0.410956	0.323831
	N244	N	0.409092	0.681152	0.968278
	N245	N	0.585379	0.678530	0.038340
	N246	N	0.585378	0.317317	0.967543
	N247	N	0.410895	0.318418	0.038463
	N248	N	0.674632	0.961994	0.419955
	N249	N	0.678476	0.034792	0.590236
	N250	N	0.319625	0.960989	0.590955
	N251	N	0.322025	0.033933	0.420058
	N252	N	0.911070	0.461782	0.183755
	N253	N	0.087702	0.533226	0.185930
	N254	N	0.087124	0.464121	0.821662
	N255	N	0.909172	0.533034	0.820484
	N256	N	0.178382	0.910882	0.468198
	N257	N	0.179917	0.084845	0.540020
	N258	N	0.820605	0.083367	0.467280
	N259	N	0.816148	0.909065	0.538874
	N260	N	0.461238	0.174590	0.919861
	N261	N	0.533918	0.179555	0.091822
	N262	N	0.462566	0.819497	0.090322
	N263	N	0.534625	0.819701	0.917195
	N264	N	0.463123	0.912037	0.183773
	N265	N	0.534535	0.087430	0.185372
	N266	N	0.463915	0.087166	0.822830
	N267	N	0.533784	0.910055	0.822735
	N268	N	0.913938	0.175888	0.467073
	N269	N	0.089107	0.181028	0.538044
	N270	N	0.083115	0.819223	0.466849
	N271	N	0.908056	0.814227	0.538003
	N272	N	0.174395	0.461855	0.919414
	N273	N	0.177483	0.535143	0.089860
	N274	N	0.819102	0.461827	0.089381
	N275	N	0.818831	0.534544	0.916159
	O276	O	0.319095	0.319160	0.686382
	H277	H	0.345525	0.307107	0.691384
	H278	H	0.330188	0.307249	0.661862
	O279	O	0.585436	0.365521	0.589143
	H280	H	0.582169	0.377353	0.586848
	H281	H	0.591496	0.349460	0.571847
	O282	O	0.921080	0.794734	0.183261
	H283	H	0.931231	0.803371	0.166324
	H284	H	0.933786	0.790268	0.187768
	O285	O	0.873117	1.105309	0.120995
	H286	H	0.871190	1.105036	0.123941
	H287	H	0.872658	1.085938	0.100345
	O288	O	0.546304	0.479230	0.519495
	H289	H	0.541352	0.477085	0.506793
	H290	H	0.563554	0.491631	0.525744
	O291	O	0.365596	0.688621	0.381991
	H292	H	0.376468	0.689533	0.384409
	H293	H	0.365610	0.670362	0.370811
	O294	O	0.790884	0.997109	0.858779
	H295	H	0.802153	0.989601	0.845033
	H296	H	0.788660	0.984764	0.842211
	O297	O	0.456718	0.446849	0.650580
	H298	H	0.457694	0.430795	0.637760
	H299	H	0.438474	0.441619	0.653049
	O300	O	0.580915	0.399835	0.584045
	H301	H	0.596998	0.413672	0.598219
	H302	H	0.589212	0.387290	0.583807
	O303	O	0.486898	0.435914	0.321607
	H304	H	0.499167	0.445407	0.333015
	H305	H	0.491874	0.434430	0.325765
	O306	O	-0.044910	-0.016616	0.793926
	H307	H	-0.038888	-0.025509	0.784842
	H308	H	-0.016539	-0.011725	0.798565
	O309	O	0.837451	-0.066653	-0.023998
	H310	H	0.832141	-0.067299	-0.024817
	H311	H	0.859735	-0.076881	-0.040661
	O312	O	0.463053	0.292589	0.505240
	H313	H	0.478966	0.286684	0.487607
	H314	H	0.458730	0.292931	0.495476
	O315	O	0.218105	0.310789	0.770201
	H316	H	0.205469	0.299334	0.783640
	H317	H	0.197521	0.297564	0.779091
	O318	O	0.154719	0.075061	0.201434
	H319	H	0.149702	0.079586	0.199327
	H320	H	0.147148	0.079458	0.204838
	O321	O	0.517343	0.608147	0.472030
	H322	H	0.522528	0.615284	0.471464
	H323	H	0.519713	0.606090	0.472499
	O324	O	1.132669	0.003314	0.823052
	H325	H	1.145110	0.019625	0.805779
	H326	H	1.128253	0.025747	0.847528
	O327	O	0.574045	0.479969	0.641826
	H328	H	0.565379	0.485570	0.640200
	H329	H	0.555625	0.486090	0.643910
	O330	O	-0.197968	0.880501	1.184123
	H331	H	-0.204189	0.894847	1.184899
	H332	H	-0.185139	0.880561	1.186319
	O333	O	-0.522453	0.300509	-0.299802
	H334	H	-0.516842	0.287013	-0.288267
	H335	H	-0.497669	0.301530	-0.311762
	O336	O	1.204123	1.156862	0.101699
	H337	H	1.209734	1.162453	0.134665
	H338	H	1.211454	1.184200	0.101971
	O339	O	0.187437	0.845886	0.960829
	H340	H	0.210627	0.834259	0.951422
	H341	H	0.173386	0.869619	0.952476
	O342	O	0.293253	0.390035	0.488852
	H343	H	0.287155	0.398576	0.516663
	H344	H	0.294376	0.393097	0.492393
	O345	O	0.161855	0.097666	1.199290
	H346	H	0.173772	0.110981	1.219072
	H347	H	0.151926	0.104630	1.204314
	O348	O	0.403645	0.302643	0.306891
	H349	H	0.411972	0.305993	0.308482
	H350	H	0.397605	0.305861	0.327584
	O351	O	1.117560	1.037969	0.024655
	H352	H	1.132924	1.038891	0.013526
	H353	H	1.104047	1.039576	0.040096
	O354	O	1.177921	0.819926	0.839337
	H355	H	1.182139	0.854368	0.829891
	H356	H	1.190795	0.826725	0.871769
	O357	O	0.088396	-0.198048	0.075839
	H358	H	0.110368	-0.192318	0.073874
	H359	H	0.071791	-0.190660	0.056986
	O360	O	0.360077	0.613370	0.576706
	H361	H	0.362224	0.608965	0.590698
	H362	H	0.354982	0.630365	0.581445
	O363	O	0.793365	0.073856	0.088603
	H364	H	0.786170	0.072175	0.107688
	H365	H	0.795160	0.073163	0.083930
	O366	O	-0.179528	0.161258	0.822756
	H367	H	-0.188035	0.117316	0.809164
	H368	H	-0.192297	0.165373	0.868065
	O369	O	1.019891	-0.219251	0.786267
	H370	H	1.042886	-0.237320	0.770180
	H371	H	1.042641	-0.227580	0.787454
	O372	O	0.584988	0.690447	0.684791
	H373	H	0.586459	0.657312	0.689086
	H374	H	0.572875	0.705387	0.702478
	O375	O	-0.037101	0.204857	0.792480
	H376	H	-0.059781	0.215179	0.777854
	H377	H	-0.068470	0.206142	0.796049
	O378	O	0.664155	0.343447	0.314954
	H379	H	0.643149	0.336937	0.323873
	H380	H	0.673180	0.356152	0.300288
	O381	O	0.099076	1.092157	0.006163
	H382	H	0.095934	1.088849	0.004011
	H383	H	0.094912	1.088644	0.001730
	O384	O	0.463232	0.642868	0.549122
	H385	H	0.448219	0.641571	0.539413
	H386	H	0.453341	0.651268	0.557995
	O387	O	0.692388	0.573589	0.663718
	H388	H	0.694737	0.552010	0.679781
	H389	H	0.680240	0.579890	0.673858
	O390	O	1.026645	1.199099	0.199568
	H391	H	1.009581	1.203816	0.204450
	H392	H	1.024730	1.201893	0.196428
	O393	O	0.807323	-0.217364	1.056752
	H394	H	0.777784	-0.252271	1.067259
	H395	H	0.820809	-0.204159	1.085417
	O396	O	0.506807	0.653470	0.394695
	H397	H	0.512739	0.648562	0.383735
	H398	H	0.510055	0.662409	0.401350
	O399	O	0.656003	0.589942	0.402681
	H400	H	0.672171	0.590348	0.386675
	H401	H	0.652397	0.586520	0.412388
	O402	O	1.067421	1.104255	0.026990
	H403	H	1.070808	1.098833	0.028665
	H404	H	1.073787	1.104841	0.012905
	O405	O	0.584642	0.584823	0.314181
	H406	H	0.579858	0.592498	0.328967
	H407	H	0.582308	0.590897	0.308414
	O408	O	0.315948	0.634172	0.557254
	H409	H	0.304653	0.644533	0.546345
	H410	H	0.316880	0.621846	0.546688
	O411	O	0.990755	0.888388	1.126386
	H412	H	0.983231	0.888655	1.124346
	H413	H	0.999644	0.880303	1.111933
	O414	O	0.406388	0.599900	0.428864
	H415	H	0.395132	0.614931	0.425119
	H416	H	0.398377	0.609092	0.426404
	O417	O	0.096296	1.091189	0.915178
	H418	H	0.080209	1.092987	0.907599
	H419	H	0.105811	1.098239	0.923306
	O420	O	-0.118017	1.026491	0.990065
	H421	H	-0.124669	1.012355	0.995056
	H422	H	-0.123938	1.045229	0.996761
	O423	O	-0.080166	1.054409	-0.057427
	H424	H	-0.082126	1.044640	-0.060651
	H425	H	-0.072987	1.060528	-0.063168
	O426	O	0.356625	0.447202	0.351635
	H427	H	0.355675	0.439807	0.364673
	H428	H	0.339351	0.450705	0.354171
	O429	O	0.439697	0.468774	0.445006
	H430	H	0.439759	0.475434	0.440783
	H431	H	0.446378	0.477760	0.442863
	O432	O	0.690152	0.387971	0.494651
	H433	H	0.700233	0.382733	0.486341
	H434	H	0.694653	0.393973	0.504414
	O435	O	-0.008507	-0.117761	-0.078616
	H436	H	-0.004755	-0.114553	-0.091823
	H437	H	-0.013629	-0.116339	-0.091048
	O438	O	0.018307	0.998575	1.104159
	H439	H	0.015007	0.983055	1.111293
	H440	H	0.011918	0.995872	1.110584
	O441	O	0.689877	0.614872	0.404158
	H442	H	0.698440	0.631843	0.405782
	H443	H	0.687510	0.623754	0.420424
