data_Molecule from HDF5

_cell_length_a		16.223160
_cell_length_b		16.459164
_cell_length_c		16.416476
_cell_angle_alpha	89.952200
_cell_angle_beta	89.875814
_cell_angle_gamma	90.027564
_symmetry_space_group_name_H-M	'P 1'
_symmetry_Int_Tables_number		1

loop_
	_symmetry_equiv_pos_as_xyz
	x,y,z

loop_
	_atom_site_label
	_atom_site_type_symbol
	_atom_site_fract_x
	_atom_site_fract_y
	_atom_site_fract_z
	H0	H	0.389333	0.843091	0.728484
	H1	H	0.607328	0.157075	0.724485
	H2	H	0.606051	0.841614	0.280353
	H3	H	0.390794	0.156951	0.279223
	H4	H	0.720123	0.394658	0.842313
	H5	H	0.721233	0.603493	0.160366
	H6	H	0.278423	0.605591	0.842838
	H7	H	0.278060	0.396095	0.161294
	H8	H	0.839214	0.717274	0.397297
	H9	H	0.159369	0.720422	0.608645
	H10	H	0.839438	0.276931	0.608837
	H11	H	0.157798	0.273094	0.391857
	H12	H	0.839266	0.391762	0.723827
	H13	H	0.160373	0.604220	0.722804
	H14	H	0.839687	0.602222	0.281400
	H15	H	0.158821	0.389008	0.278325
	H16	H	0.388151	0.727174	0.846558
	H17	H	0.607644	0.722000	0.160349
	H18	H	0.608127	0.274832	0.844957
	H19	H	0.389810	0.276296	0.160787
	H20	H	0.719623	0.839950	0.398320
	H21	H	0.721014	0.157477	0.606558
	H22	H	0.277584	0.840314	0.608681
	H23	H	0.276381	0.156626	0.397007
	H24	H	0.889939	0.340553	0.225512
	H25	H	0.106705	0.655460	0.225039
	H26	H	0.106637	0.340659	0.779622
	H27	H	0.892336	0.657002	0.779825
	H28	H	0.220317	0.896150	0.343205
	H29	H	0.220209	0.103005	0.661989
	H30	H	0.781433	0.100976	0.342445
	H31	H	0.779207	0.893537	0.661258
	H32	H	0.339458	0.219863	0.897904
	H33	H	0.660103	0.220470	0.108127
	H34	H	0.340101	0.778156	0.109708
	H35	H	0.659278	0.777427	0.895567
	H36	H	0.339448	0.896284	0.221500
	H37	H	0.661206	0.104150	0.221322
	H38	H	0.340121	0.107395	0.779908
	H39	H	0.659052	0.892716	0.779554
	H40	H	0.890893	0.221963	0.345259
	H41	H	0.111258	0.225520	0.658029
	H42	H	0.108030	0.776692	0.343777
	H43	H	0.891221	0.774620	0.660027
	H44	H	0.220095	0.339532	0.898567
	H45	H	0.217993	0.658711	0.104167
	H46	H	0.776143	0.340456	0.106898
	H47	H	0.781582	0.658822	0.900045
	H48	H	0.409101	0.109171	0.581692
	H49	H	0.588152	0.887669	0.588183
	H50	H	0.595169	0.116024	0.408268
	H51	H	0.406408	0.884653	0.411530
	H52	H	0.586600	0.408373	0.115869
	H53	H	0.585390	0.589489	0.889614
	H54	H	0.412432	0.587069	0.114568
	H55	H	0.409663	0.410838	0.888996
	H56	H	0.114251	0.582217	0.409038
	H57	H	0.885811	0.585634	0.588861
	H58	H	0.114400	0.413902	0.595218
	H59	H	0.888474	0.417943	0.414676
	H60	H	0.115468	0.404655	0.588100
	H61	H	0.885516	0.585822	0.592358
	H62	H	0.116938	0.592328	0.412046
	H63	H	0.881537	0.407374	0.406977
	H64	H	0.411741	0.591095	0.114650
	H65	H	0.587890	0.590507	0.888637
	H66	H	0.589177	0.411798	0.115156
	H67	H	0.413884	0.409301	0.889724
	H68	H	0.584383	0.112781	0.408030
	H69	H	0.590342	0.884449	0.594315
	H70	H	0.405119	0.116036	0.597351
	H71	H	0.416657	0.886924	0.407568
	H72	H	0.907006	0.612113	0.091188
	H73	H	0.085099	0.383525	0.097759
	H74	H	0.085052	0.613192	0.903322
	H75	H	0.917569	0.388521	0.913298
	H76	H	0.087591	0.905127	0.617316
	H77	H	0.093394	0.083213	0.388387
	H78	H	0.909378	0.092207	0.617624
	H79	H	0.901736	0.909405	0.386446
	H80	H	0.616128	0.097048	0.918879
	H81	H	0.386204	0.086595	0.089519
	H82	H	0.615803	0.908897	0.092598
	H83	H	0.388594	0.914341	0.919656
	H84	H	0.614956	0.910072	0.088066
	H85	H	0.384693	0.088098	0.094272
	H86	H	0.607866	0.079529	0.920866
	H87	H	0.385872	0.916396	0.913139
	H88	H	0.908954	0.081926	0.615426
	H89	H	0.081025	0.080511	0.394596
	H90	H	0.089342	0.909388	0.615946
	H91	H	0.917183	0.912477	0.392215
	H92	H	0.082202	0.608390	0.916662
	H93	H	0.083250	0.389402	0.085356
	H94	H	0.915278	0.610957	0.095525
	H95	H	0.906351	0.385689	0.917920
	H96	H	0.421194	0.110455	0.594289
	H97	H	0.583858	0.886129	0.593915
	H98	H	0.590636	0.111682	0.417290
	H99	H	0.414035	0.888870	0.418571
	H100	H	0.584319	0.411584	0.113503
	H101	H	0.588078	0.588177	0.889159
	H102	H	0.408409	0.588589	0.115609
	H103	H	0.410959	0.406435	0.887622
	H104	H	0.113248	0.585393	0.419267
	H105	H	0.884937	0.588345	0.590876
	H106	H	0.110903	0.414461	0.584006
	H107	H	0.886120	0.405023	0.420427
	H108	H	0.914073	0.608221	0.086696
	H109	H	0.095716	0.383434	0.088793
	H110	H	0.095338	0.613797	0.913682
	H111	H	0.908931	0.382704	0.906218
	H112	H	0.084137	0.908188	0.614572
	H113	H	0.083208	0.093432	0.389225
	H114	H	0.918248	0.087435	0.613974
	H115	H	0.913247	0.897629	0.385866
	H116	H	0.616746	0.084589	0.904415
	H117	H	0.383997	0.091159	0.090053
	H118	H	0.613829	0.912382	0.091688
	H119	H	0.384130	0.909533	0.915592
	C120	C	0.377916	0.007600	0.624222
	C121	C	0.621014	0.990399	0.624287
	C122	C	0.621814	0.008397	0.379931
	C123	C	0.378379	0.990820	0.380389
	C124	C	0.620718	0.377622	0.010282
	C125	C	0.620562	0.621361	0.993888
	C126	C	0.377571	0.621933	0.010661
	C127	C	0.377740	0.377252	0.993773
	C128	C	0.008594	0.618663	0.381022
	C129	C	0.991208	0.619499	0.623102
	C130	C	0.007859	0.377538	0.622683
	C131	C	0.990519	0.376306	0.380360
	C132	C	0.878010	0.506345	0.123507
	C133	C	0.121137	0.489859	0.123710
	C134	C	0.121112	0.507400	0.879123
	C135	C	0.878090	0.490242	0.880128
	C136	C	0.120846	0.876081	0.511217
	C137	C	0.120516	0.119736	0.494438
	C138	C	0.879066	0.119179	0.510742
	C139	C	0.877971	0.875148	0.493038
	C140	C	0.508128	0.120311	0.881574
	C141	C	0.491114	0.120740	0.123808
	C142	C	0.508819	0.878845	0.123339
	C143	C	0.490940	0.879219	0.881806
	C144	C	0.373222	0.889481	0.686370
	C145	C	0.624763	0.109546	0.684159
	C146	C	0.623745	0.888817	0.320348
	C147	C	0.373838	0.109497	0.319762
	C148	C	0.681041	0.375495	0.890670
	C149	C	0.681163	0.622274	0.112825
	C150	C	0.317470	0.624489	0.891127
	C151	C	0.317360	0.376603	0.113609
	C152	C	0.887674	0.678020	0.378766
	C153	C	0.111716	0.680130	0.626090
	C154	C	0.887496	0.316822	0.626350
	C155	C	0.110017	0.313941	0.375073
	C156	C	0.887542	0.374299	0.683656
	C157	C	0.112146	0.622113	0.682840
	C158	C	0.887691	0.620431	0.321302
	C159	C	0.110400	0.371679	0.318243
	C160	C	0.372247	0.685124	0.892957
	C161	C	0.624590	0.681502	0.112580
	C162	C	0.625383	0.315713	0.892007
	C163	C	0.373494	0.317082	0.113253
	C164	C	0.680399	0.888147	0.379199
	C165	C	0.681449	0.109810	0.625210
	C166	C	0.317288	0.888293	0.626897
	C167	C	0.316503	0.109304	0.378454
	C168	C	0.873484	0.387742	0.184306
	C169	C	0.124111	0.608380	0.184321
	C170	C	0.124311	0.388005	0.819766
	C171	C	0.875510	0.609532	0.820197
	C172	C	0.181411	0.876093	0.391394
	C173	C	0.181425	0.122315	0.613692
	C174	C	0.819871	0.120304	0.390734
	C175	C	0.818208	0.874383	0.613086
	C176	C	0.387718	0.180302	0.879293
	C177	C	0.611943	0.180631	0.125976
	C178	C	0.388093	0.818638	0.126736
	C179	C	0.611129	0.817525	0.877727
	C180	C	0.387695	0.877434	0.182399
	C181	C	0.612439	0.122536	0.182347
	C182	C	0.387988	0.124075	0.820595
	C183	C	0.611188	0.875005	0.820111
	C184	C	0.874633	0.180549	0.392149
	C185	C	0.126953	0.183272	0.611733
	C186	C	0.125191	0.816751	0.391639
	C187	C	0.874268	0.814998	0.612396
	C188	C	0.180744	0.387534	0.879002
	C189	C	0.179248	0.610283	0.123828
	C190	C	0.816383	0.387731	0.125535
	C191	C	0.819984	0.610657	0.879851
	C192	C	0.404304	0.090125	0.598358
	C193	C	0.595108	0.907705	0.599348
	C194	C	0.597290	0.091735	0.404130
	C195	C	0.404806	0.908124	0.405455
	C196	C	0.594384	0.403243	0.093180
	C197	C	0.594281	0.596587	0.910597
	C198	C	0.403425	0.596168	0.093458
	C199	C	0.404010	0.401629	0.910688
	C200	C	0.092830	0.593907	0.406180
	C201	C	0.907479	0.593971	0.597992
	C202	C	0.091647	0.403264	0.596602
	C203	C	0.907103	0.402447	0.406874
	C204	C	0.904483	0.588901	0.098319
	C205	C	0.095553	0.407042	0.098143
	C206	C	0.095112	0.590124	0.903944
	C207	C	0.903621	0.407334	0.905128
	C208	C	0.094642	0.900369	0.594326
	C209	C	0.093403	0.093248	0.412264
	C210	C	0.904703	0.094302	0.593859
	C211	C	0.903389	0.899445	0.409754
	C212	C	0.591802	0.094457	0.907417
	C213	C	0.406760	0.095908	0.098716
	C214	C	0.592852	0.903280	0.098006
	C215	C	0.407971	0.905678	0.908398
	Zn216	Zn	0.499465	-0.000364	0.753164
	Zn217	Zn	0.500303	-0.000278	0.251102
	Zn218	Zn	0.749330	0.499349	0.000995
	Zn219	Zn	0.249998	0.499348	0.001373
	Zn220	Zn	-0.000283	0.747080	0.501751
	Zn221	Zn	-0.000465	0.248887	0.502287
	Zn222	Zn	-0.000607	0.498763	0.750785
	Zn223	Zn	-0.000285	0.497324	0.252859
	Zn224	Zn	0.499300	0.750774	0.002585
	Zn225	Zn	0.499656	0.248685	0.002512
	Zn226	Zn	0.749774	-0.001539	0.502741
	Zn227	Zn	0.249377	-0.001427	0.503422
	N228	N	0.410351	0.964583	0.684740
	N229	N	0.587980	0.034348	0.683662
	N230	N	0.587954	0.964574	0.320665
	N231	N	0.411325	0.034748	0.320503
	N232	N	0.678475	0.413186	0.965422
	N233	N	0.678705	0.585518	0.037796
	N234	N	0.320494	0.585926	0.965310
	N235	N	0.319944	0.413298	0.038525
	N236	N	0.963823	0.676955	0.415139
	N237	N	0.035534	0.678458	0.589589
	N238	N	0.963493	0.318646	0.589141
	N239	N	0.034509	0.316594	0.413083
	N240	N	0.963454	0.411139	0.681578
	N241	N	0.036272	0.585123	0.681197
	N242	N	0.964119	0.584343	0.322426
	N243	N	0.035040	0.409648	0.321294
	N244	N	0.408818	0.683740	0.968396
	N245	N	0.587520	0.680836	0.037485
	N246	N	0.588836	0.316815	0.967627
	N247	N	0.410119	0.317147	0.037543
	N248	N	0.679454	0.963270	0.415409
	N249	N	0.679212	0.034622	0.588748
	N250	N	0.320107	0.962723	0.589005
	N251	N	0.319314	0.034385	0.415558
	N252	N	0.911108	0.462403	0.183081
	N253	N	0.089080	0.532254	0.184473
	N254	N	0.088356	0.463568	0.819650
	N255	N	0.910827	0.533564	0.820294
	N256	N	0.178838	0.912290	0.466729
	N257	N	0.177471	0.083597	0.539831
	N258	N	0.822512	0.082643	0.465484
	N259	N	0.820135	0.911211	0.537990
	N260	N	0.463401	0.177980	0.916659
	N261	N	0.535382	0.179739	0.090325
	N262	N	0.464496	0.819232	0.090743
	N263	N	0.535225	0.819780	0.915278
	N264	N	0.463770	0.913982	0.180516
	N265	N	0.536095	0.086137	0.181142
	N266	N	0.464082	0.087451	0.821916
	N267	N	0.535630	0.912584	0.822428
	N268	N	0.910778	0.179862	0.467721
	N269	N	0.089893	0.181938	0.536337
	N270	N	0.088560	0.816410	0.467280
	N271	N	0.910568	0.815336	0.536804
	N272	N	0.179138	0.462921	0.915057
	N273	N	0.177618	0.535458	0.086919
	N274	N	0.819201	0.462469	0.088163
	N275	N	0.821260	0.535510	0.916217
	O276	O	0.315817	0.314582	0.686244
	H277	H	0.361994	0.305785	0.691394
	H278	H	0.310289	0.299626	0.647681
	O279	O	0.695266	0.480662	0.511054
	H280	H	0.695073	0.476803	0.516094
	H281	H	0.699433	0.479714	0.515087
	O282	O	0.396347	0.707624	0.448512
	H283	H	0.393204	0.698390	0.474118
	H284	H	0.385867	0.725187	0.454217
	O285	O	0.921322	1.179099	-0.080459
	H286	H	0.916489	1.185458	-0.069652
	H287	H	0.923485	1.167606	-0.078953
	O288	O	0.518906	0.282494	0.286915
	H289	H	0.536394	0.301474	0.299523
	H290	H	0.521983	0.249983	0.252959
	O291	O	0.479718	0.701952	0.300218
	H292	H	0.492150	0.693366	0.301397
	H293	H	0.476734	0.719171	0.286880
	O294	O	0.896216	0.855617	1.190979
	H295	H	0.890310	0.842229	1.190342
	H296	H	0.883602	0.874706	1.183263
	O297	O	0.445730	0.523949	0.516908
	H298	H	0.446689	0.528629	0.488017
	H299	H	0.440145	0.520990	0.535770
	O300	O	0.478892	0.285254	0.478529
	H301	H	0.486262	0.287259	0.451869
	H302	H	0.449561	0.277711	0.483041
	O303	O	0.436743	0.427474	0.319561
	H304	H	0.421227	0.410501	0.313175
	H305	H	0.414908	0.429990	0.328526
	O306	O	0.122099	-0.098616	0.930265
	H307	H	0.104587	-0.106331	0.945504
	H308	H	0.133060	-0.100430	0.943456
	O309	O	0.885428	-0.019920	0.050468
	H310	H	0.878164	-0.008080	0.041449
	H311	H	0.872806	-0.039327	0.040334
	O312	O	0.294971	0.290602	0.519454
	H313	H	0.263730	0.275413	0.521317
	H314	H	0.292699	0.322473	0.495378
	O315	O	0.281938	0.473748	0.720993
	H316	H	0.248777	0.465469	0.751742
	H317	H	0.289028	0.425878	0.712318
	O318	O	0.099980	0.176553	0.184894
	H319	H	0.120476	0.164456	0.185309
	H320	H	0.106919	0.169444	0.176257
	O321	O	0.559538	0.357582	0.547105
	H322	H	0.566837	0.371058	0.535280
	H323	H	0.544034	0.348436	0.522525
	O324	O	1.084033	0.006901	0.801624
	H325	H	1.084596	0.022477	0.791889
	H326	H	1.072585	0.018666	0.790417
	O327	O	0.697254	0.302623	0.477837
	H328	H	0.675010	0.319139	0.495514
	H329	H	0.728599	0.292152	0.484232
	O330	O	-0.183404	0.826055	1.024651
	H331	H	-0.172634	0.822469	1.033584
	H332	H	-0.210233	0.820270	1.018200
	O333	O	-0.494612	0.323471	-0.297251
	H334	H	-0.483744	0.327672	-0.294886
	H335	H	-0.479493	0.323734	-0.308658
	O336	O	1.022340	1.125586	0.125859
	H337	H	1.034920	1.136899	0.129241
	H338	H	1.027724	1.136451	0.110784
	O339	O	0.095202	0.952927	1.011550
	H340	H	0.092312	0.954188	1.010578
	H341	H	0.095782	0.949492	1.010641
	O342	O	0.317692	0.591389	0.533874
	H343	H	0.311898	0.589551	0.544866
	H344	H	0.328846	0.587039	0.542336
	O345	O	-0.039455	0.213585	1.056093
	H346	H	-0.039390	0.235417	1.071129
	H347	H	-0.016374	0.199896	1.063613
	O348	O	0.284384	0.520823	0.290003
	H349	H	0.282582	0.553725	0.286044
	H350	H	0.263523	0.543366	0.272673
	O351	O	0.964604	1.170743	-0.211585
	H352	H	0.948556	1.175160	-0.223377
	H353	H	0.953878	1.168552	-0.224216
	O354	O	1.163680	0.817901	0.871977
	H355	H	1.168009	0.822068	0.883513
	H356	H	1.175568	0.840792	0.879717
	O357	O	0.095649	-0.018057	0.057579
	H358	H	0.088725	-0.019335	0.040644
	H359	H	0.097083	-0.003273	0.066088
	O360	O	0.286996	0.448736	0.453998
	H361	H	0.284202	0.476436	0.447295
	H362	H	0.293981	0.466265	0.450452
	O363	O	0.882909	0.052031	-0.029908
	H364	H	0.873962	0.052318	-0.032941
	H365	H	0.883875	0.047572	-0.023090
	O366	O	-0.059643	0.015908	0.803805
	H367	H	-0.066298	0.022267	0.801169
	H368	H	-0.067082	0.017201	0.795870
	O369	O	0.932464	-0.115052	0.846384
	H370	H	0.936587	-0.135752	0.843685
	H371	H	0.928278	-0.117299	0.850703
	O372	O	0.506011	0.711554	0.703419
	H373	H	0.495977	0.691217	0.711679
	H374	H	0.502766	0.728722	0.722615
	O375	O	-0.191958	0.184869	0.933512
	H376	H	-0.185043	0.181962	0.946919
	H377	H	-0.187850	0.203508	0.948793
	O378	O	0.679432	0.321605	0.320231
	H379	H	0.680455	0.311446	0.362432
	H380	H	0.671729	0.348314	0.316934
	O381	O	0.130975	1.018393	0.046040
	H382	H	0.136870	1.018199	0.035799
	H383	H	0.119159	1.013211	0.044915
	O384	O	0.687851	0.660200	0.500797
	H385	H	0.694279	0.641007	0.485581
	H386	H	0.691959	0.666708	0.490738
	O387	O	0.474518	0.526340	0.719610
	H388	H	0.466766	0.522184	0.727537
	H389	H	0.479381	0.519627	0.713712
	O390	O	0.847299	0.921615	0.181803
	H391	H	0.844896	0.928217	0.178854
	H392	H	0.846122	0.947400	0.175877
	O393	O	0.997671	-0.093440	1.179728
	H394	H	0.977424	-0.104709	1.181950
	H395	H	0.977471	-0.093059	1.187131
	O396	O	0.678166	0.676113	0.686535
	H397	H	0.680142	0.679492	0.646470
	H398	H	0.641611	0.686709	0.686213
	O399	O	0.593766	0.405789	0.659754
	H400	H	0.585559	0.401862	0.654883
	H401	H	0.613825	0.416176	0.678630
	O402	O	1.051384	1.128595	0.099763
	H403	H	1.056560	1.102209	0.097633
	H404	H	1.064123	1.126815	0.094955
	O405	O	0.705732	0.518647	0.713414
	H406	H	0.694940	0.562613	0.698999
	H407	H	0.727615	0.521738	0.740473
	O408	O	0.445626	0.682589	0.588476
	H409	H	0.447102	0.674217	0.607489
	H410	H	0.446620	0.672442	0.585309
	O411	O	1.150397	0.879983	1.071523
	H412	H	1.156377	0.881619	1.072217
	H413	H	1.131117	0.878798	1.079515
	O414	O	0.586173	0.585941	0.296277
	H415	H	0.565071	0.576369	0.303672
	H416	H	0.584701	0.578790	0.293686
	O417	O	-0.068837	0.873761	0.977533
	H418	H	-0.065746	0.876900	0.967948
	H419	H	-0.050154	0.879626	0.955639
	O420	O	-0.115506	0.926273	1.167360
	H421	H	-0.113316	0.939473	1.179719
	H422	H	-0.135359	0.928570	1.172209
	O423	O	0.202645	1.053509	0.083893
	H424	H	0.213397	1.051540	0.082705
	H425	H	0.191478	1.055712	0.094328
	O426	O	0.313976	0.681592	0.316983
	H427	H	0.297586	0.702861	0.340647
	H428	H	0.351196	0.695496	0.318043
	O429	O	0.514856	0.489752	0.452244
	H430	H	0.508155	0.480288	0.447971
	H431	H	0.500841	0.491627	0.442373
	O432	O	0.698323	0.489406	0.304601
	H433	H	0.669772	0.484130	0.306241
	H434	H	0.718058	0.486805	0.286857
	O435	O	0.038071	-0.195256	-0.194046
	H436	H	0.068719	-0.189577	-0.190431
	H437	H	0.050343	-0.205372	-0.215331
	O438	O	0.074488	1.113750	0.851605
	H439	H	0.051186	1.125003	0.846654
	H440	H	0.053495	1.092527	0.859364
	O441	O	0.576055	0.703175	0.472457
	H442	H	0.574748	0.703084	0.460862
	H443	H	0.560297	0.698270	0.478873
