data_Molecule from HDF5

_cell_length_a		16.410790
_cell_length_b		16.111835
_cell_length_c		16.343640
_cell_angle_alpha	90.181759
_cell_angle_beta	90.152333
_cell_angle_gamma	90.326053
_symmetry_space_group_name_H-M	'P 1'
_symmetry_Int_Tables_number		1

loop_
	_symmetry_equiv_pos_as_xyz
	x,y,z

loop_
	_atom_site_label
	_atom_site_type_symbol
	_atom_site_fract_x
	_atom_site_fract_y
	_atom_site_fract_z
	H0	H	0.393680	0.829157	0.708823
	H1	H	0.599072	0.156030	0.713178
	H2	H	0.593880	0.830434	0.278210
	H3	H	0.392549	0.156760	0.277332
	H4	H	0.715989	0.386569	0.836968
	H5	H	0.718015	0.602532	0.154801
	H6	H	0.275297	0.600238	0.835732
	H7	H	0.276650	0.390863	0.155865
	H8	H	0.835654	0.710523	0.394661
	H9	H	0.157835	0.713245	0.596628
	H10	H	0.834993	0.275786	0.593859
	H11	H	0.158423	0.277595	0.394229
	H12	H	0.836900	0.387652	0.715088
	H13	H	0.156134	0.600069	0.716625
	H14	H	0.838152	0.599793	0.272794
	H15	H	0.157302	0.390899	0.275574
	H16	H	0.396477	0.707064	0.831969
	H17	H	0.597101	0.712667	0.155943
	H18	H	0.594776	0.277559	0.834202
	H19	H	0.395178	0.278949	0.158054
	H20	H	0.712817	0.831151	0.388995
	H21	H	0.713612	0.156819	0.596734
	H22	H	0.277184	0.831712	0.596980
	H23	H	0.279500	0.156895	0.393006
	H24	H	0.895281	0.330654	0.211420
	H25	H	0.102376	0.656400	0.214570
	H26	H	0.096818	0.330590	0.778498
	H27	H	0.893536	0.656749	0.778196
	H28	H	0.214935	0.889877	0.335334
	H29	H	0.217726	0.102021	0.654911
	H30	H	0.775030	0.100249	0.335197
	H31	H	0.774012	0.887020	0.653881
	H32	H	0.332757	0.209758	0.894986
	H33	H	0.656226	0.213004	0.097638
	H34	H	0.334338	0.774253	0.094340
	H35	H	0.657746	0.776528	0.894100
	H36	H	0.335070	0.889021	0.213208
	H37	H	0.654293	0.100806	0.217714
	H38	H	0.334100	0.094828	0.775121
	H39	H	0.655956	0.888827	0.774769
	H40	H	0.897892	0.208819	0.332624
	H41	H	0.098070	0.211771	0.657041
	H42	H	0.096158	0.778108	0.334098
	H43	H	0.896536	0.778606	0.657289
	H44	H	0.212210	0.331235	0.893178
	H45	H	0.214474	0.657336	0.098013
	H46	H	0.777252	0.332772	0.100299
	H47	H	0.777205	0.656043	0.892462
	H48	H	0.407741	0.110293	0.586274
	H49	H	0.583201	0.877202	0.584748
	H50	H	0.594606	0.112303	0.410359
	H51	H	0.403512	0.874739	0.396801
	H52	H	0.593467	0.404093	0.113233
	H53	H	0.590719	0.579431	0.880437
	H54	H	0.392348	0.583015	0.114120
	H55	H	0.397889	0.399055	0.877355
	H56	H	0.110981	0.586684	0.408040
	H57	H	0.877324	0.594568	0.591704
	H58	H	0.112977	0.404057	0.593837
	H59	H	0.879902	0.396639	0.401292
	H60	H	0.111497	0.400210	0.583141
	H61	H	0.885386	0.584417	0.575817
	H62	H	0.110653	0.581779	0.403405
	H63	H	0.885628	0.404297	0.409385
	H64	H	0.410171	0.571781	0.104071
	H65	H	0.584897	0.580777	0.881932
	H66	H	0.586506	0.411798	0.108517
	H67	H	0.401347	0.409649	0.881403
	H68	H	0.584146	0.112125	0.397125
	H69	H	0.587160	0.876750	0.581154
	H70	H	0.406162	0.111032	0.585684
	H71	H	0.411346	0.879734	0.407853
	H72	H	0.904428	0.611605	0.083974
	H73	H	0.092465	0.375575	0.084459
	H74	H	0.078402	0.605822	0.912516
	H75	H	0.913645	0.380217	0.904930
	H76	H	0.091490	0.899484	0.613601
	H77	H	0.090963	0.081564	0.380652
	H78	H	0.903049	0.076963	0.608581
	H79	H	0.910355	0.907139	0.382092
	H80	H	0.608561	0.084659	0.904373
	H81	H	0.379041	0.089559	0.085636
	H82	H	0.608471	0.907658	0.085115
	H83	H	0.380797	0.903838	0.898901
	H84	H	0.609535	0.904489	0.088994
	H85	H	0.382628	0.080981	0.083315
	H86	H	0.609129	0.084513	0.903404
	H87	H	0.380342	0.897793	0.900662
	H88	H	0.910948	0.084369	0.608159
	H89	H	0.085127	0.085089	0.381452
	H90	H	0.093328	0.913323	0.609921
	H91	H	0.903289	0.897705	0.377555
	H92	H	0.096423	0.612473	0.910989
	H93	H	0.085043	0.376398	0.090334
	H94	H	0.909183	0.611646	0.088127
	H95	H	0.901886	0.379553	0.913713
	H96	H	0.406341	0.111281	0.587226
	H97	H	0.587537	0.875040	0.586389
	H98	H	0.579160	0.105976	0.411952
	H99	H	0.397227	0.876318	0.409130
	H100	H	0.583015	0.401228	0.111362
	H101	H	0.588680	0.585232	0.879059
	H102	H	0.412429	0.594850	0.111459
	H103	H	0.408543	0.400818	0.881332
	H104	H	0.113369	0.587929	0.402150
	H105	H	0.882499	0.574864	0.593790
	H106	H	0.108561	0.411244	0.585808
	H107	H	0.882451	0.408169	0.398998
	H108	H	0.909430	0.609470	0.081906
	H109	H	0.082978	0.379416	0.080949
	H110	H	0.084571	0.614142	0.895193
	H111	H	0.901330	0.373772	0.899569
	H112	H	0.080652	0.906615	0.608463
	H113	H	0.090867	0.087960	0.378223
	H114	H	0.901293	0.086889	0.611352
	H115	H	0.898779	0.908685	0.380033
	H116	H	0.609065	0.085503	0.903536
	H117	H	0.379278	0.082978	0.092243
	H118	H	0.609309	0.902565	0.084451
	H119	H	0.382968	0.902050	0.904412
	C120	C	0.375216	0.002611	0.615891
	C121	C	0.617204	0.984155	0.615554
	C122	C	0.616112	0.002566	0.374114
	C123	C	0.373830	0.984957	0.374149
	C124	C	0.617628	0.373124	0.005028
	C125	C	0.618638	0.615181	0.986389
	C126	C	0.374772	0.614381	0.003443
	C127	C	0.372952	0.372731	0.986706
	C128	C	0.005619	0.616228	0.373467
	C129	C	0.987863	0.616710	0.618007
	C130	C	0.004795	0.372559	0.617373
	C131	C	0.988970	0.372553	0.373120
	C132	C	0.876355	0.503199	0.116127
	C133	C	0.118043	0.485223	0.116268
	C134	C	0.116941	0.503184	0.874786
	C135	C	0.874256	0.485179	0.874617
	C136	C	0.117949	0.874622	0.504359
	C137	C	0.119502	0.116769	0.486417
	C138	C	0.874804	0.114422	0.503312
	C139	C	0.873617	0.872712	0.486001
	C140	C	0.502768	0.115057	0.873234
	C141	C	0.486455	0.116299	0.117891
	C142	C	0.503391	0.872427	0.116030
	C143	C	0.487507	0.870615	0.871756
	C144	C	0.374774	0.878669	0.671366
	C145	C	0.617987	0.107295	0.673896
	C146	C	0.614793	0.879662	0.316084
	C147	C	0.374054	0.107773	0.316312
	C148	C	0.676113	0.369665	0.884614
	C149	C	0.677811	0.619464	0.106875
	C150	C	0.315464	0.616947	0.883091
	C151	C	0.315580	0.372122	0.107843
	C152	C	0.884277	0.672896	0.374193
	C153	C	0.109235	0.674503	0.616630
	C154	C	0.883580	0.314397	0.614837
	C155	C	0.109942	0.315621	0.374167
	C156	C	0.884540	0.370066	0.675195
	C157	C	0.108304	0.618186	0.676422
	C158	C	0.885435	0.617290	0.313836
	C159	C	0.109423	0.372152	0.315152
	C160	C	0.375783	0.670551	0.881217
	C161	C	0.617962	0.674637	0.107376
	C162	C	0.615822	0.315220	0.883229
	C163	C	0.374626	0.316330	0.108888
	C164	C	0.674003	0.880212	0.371328
	C165	C	0.674958	0.107667	0.615922
	C166	C	0.316814	0.880009	0.615660
	C167	C	0.317782	0.107973	0.374158
	C168	C	0.875807	0.380226	0.173703
	C169	C	0.120182	0.607841	0.174933
	C170	C	0.116509	0.379857	0.816868
	C171	C	0.874078	0.607728	0.816641
	C172	C	0.175337	0.872293	0.383244
	C173	C	0.177998	0.119254	0.606979
	C174	C	0.815633	0.117508	0.382641
	C175	C	0.814521	0.869898	0.606403
	C176	C	0.381343	0.171440	0.874635
	C177	C	0.607608	0.174679	0.117682
	C178	C	0.382720	0.813180	0.114688
	C179	C	0.608877	0.814033	0.873398
	C180	C	0.382903	0.870647	0.173644
	C181	C	0.606635	0.118770	0.177531
	C182	C	0.381919	0.114079	0.815121
	C183	C	0.608041	0.870040	0.813813
	C184	C	0.876539	0.171675	0.381491
	C185	C	0.118209	0.174006	0.608288
	C186	C	0.116278	0.816437	0.382695
	C187	C	0.875272	0.815680	0.608044
	C188	C	0.173977	0.380329	0.873801
	C189	C	0.176256	0.608041	0.117109
	C190	C	0.817174	0.381045	0.118086
	C191	C	0.816225	0.607388	0.873620
	C192	C	0.399609	0.088604	0.592883
	C193	C	0.592908	0.898650	0.591268
	C194	C	0.592781	0.088017	0.399314
	C195	C	0.397221	0.899129	0.397647
	C196	C	0.594476	0.398344	0.089066
	C197	C	0.594936	0.589397	0.902410
	C198	C	0.398242	0.590309	0.087947
	C199	C	0.395878	0.396237	0.902142
	C200	C	0.089744	0.592441	0.397479
	C201	C	0.903498	0.591900	0.594062
	C202	C	0.089207	0.397850	0.594284
	C203	C	0.904560	0.396263	0.396482
	C204	C	0.900606	0.588588	0.091849
	C205	C	0.093844	0.399457	0.092092
	C206	C	0.093308	0.588595	0.899047
	C207	C	0.898474	0.399789	0.898963
	C208	C	0.095081	0.899382	0.588891
	C209	C	0.095881	0.092133	0.401998
	C210	C	0.898328	0.090024	0.587501
	C211	C	0.897188	0.897345	0.401766
	C212	C	0.586979	0.091626	0.896825
	C213	C	0.402195	0.091509	0.094018
	C214	C	0.587370	0.897670	0.092722
	C215	C	0.403221	0.894413	0.894706
	Zn216	Zn	0.495335	-0.007542	0.742983
	Zn217	Zn	0.494794	-0.005740	0.246486
	Zn218	Zn	0.747445	0.493735	-0.003228
	Zn219	Zn	0.245184	0.494616	-0.004535
	Zn220	Zn	-0.003572	0.745583	0.495663
	Zn221	Zn	-0.003185	0.243377	0.495295
	Zn222	Zn	-0.004148	0.494099	0.747087
	Zn223	Zn	-0.002622	0.494221	0.243919
	Zn224	Zn	0.495409	0.742004	-0.006060
	Zn225	Zn	0.494906	0.245060	-0.004403
	Zn226	Zn	0.745191	-0.006234	0.494121
	Zn227	Zn	0.247452	-0.005208	0.495687
	N228	N	0.410346	0.955988	0.671635
	N229	N	0.582956	0.029476	0.674040
	N230	N	0.579704	0.956993	0.317533
	N231	N	0.408238	0.030014	0.316229
	N232	N	0.677474	0.404992	0.961404
	N233	N	0.678479	0.583265	0.030775
	N234	N	0.314684	0.582672	0.960035
	N235	N	0.314144	0.406309	0.030897
	N236	N	0.959931	0.672461	0.410545
	N237	N	0.033012	0.673814	0.581256
	N238	N	0.959629	0.315857	0.579763
	N239	N	0.033985	0.315638	0.409422
	N240	N	0.960988	0.405449	0.676665
	N241	N	0.031804	0.582854	0.677309
	N242	N	0.962020	0.583165	0.313064
	N243	N	0.033031	0.406778	0.314342
	N244	N	0.411966	0.669040	0.956975
	N245	N	0.581712	0.672007	0.031509
	N246	N	0.580161	0.316986	0.959030
	N247	N	0.409855	0.316819	0.032661
	N248	N	0.674871	0.957713	0.406565
	N249	N	0.674685	0.030128	0.580491
	N250	N	0.316960	0.958136	0.582105
	N251	N	0.317395	0.030601	0.409031
	N252	N	0.912105	0.457188	0.172423
	N253	N	0.084838	0.530378	0.174697
	N254	N	0.081840	0.457300	0.817173
	N255	N	0.909299	0.530578	0.817107
	N256	N	0.176618	0.907405	0.459954
	N257	N	0.178871	0.084435	0.530150
	N258	N	0.814697	0.082458	0.459132
	N259	N	0.813256	0.904239	0.529456
	N260	N	0.457501	0.172145	0.909896
	N261	N	0.531776	0.173390	0.081559
	N262	N	0.458716	0.814205	0.079515
	N263	N	0.532902	0.814165	0.908667
	N264	N	0.458894	0.906754	0.174629
	N265	N	0.530240	0.083254	0.177865
	N266	N	0.458525	0.079965	0.813858
	N267	N	0.531544	0.904412	0.812683
	N268	N	0.912970	0.169740	0.457350
	N269	N	0.082569	0.172741	0.532215
	N270	N	0.081054	0.817761	0.458938
	N271	N	0.911316	0.817110	0.532184
	N272	N	0.174202	0.457777	0.909266
	N273	N	0.174935	0.530795	0.081254
	N274	N	0.817272	0.458635	0.083313
	N275	N	0.816239	0.530049	0.908763
	O276	O	0.607236	0.429179	0.530145
	H277	H	0.618508	0.430976	0.512368
	H278	H	0.599130	0.426087	0.533197
	O279	O	0.641467	0.518176	0.535617
	H280	H	0.629568	0.516181	0.534716
	H281	H	0.643402	0.520530	0.539640
	O282	O	1.025089	0.049226	0.933852
	H283	H	1.017492	0.045142	0.943564
	H284	H	1.031120	0.053026	0.923189
	O285	O	0.508030	0.606493	0.370626
	H286	H	0.500628	0.594913	0.378181
	H287	H	0.519806	0.611677	0.371534
	O288	O	0.958283	0.980218	1.022561
	H289	H	0.957568	1.006431	1.024041
	H290	H	0.956774	0.981756	1.000110
	O291	O	0.026755	1.027222	-0.086999
	H292	H	0.022592	1.021343	-0.108261
	H293	H	0.016960	1.035024	-0.080656
	O294	O	0.371461	0.657745	0.393503
	H295	H	0.362996	0.665555	0.385648
	H296	H	0.369372	0.648154	0.399375
	O297	O	0.496495	0.634642	0.469608
	H298	H	0.490600	0.643331	0.474647
	H299	H	0.508020	0.649724	0.474431
	O300	O	0.371786	0.461632	0.505677
	H301	H	0.363055	0.471426	0.501871
	H302	H	0.376696	0.458081	0.509209
	O303	O	0.602912	0.516263	0.558182
	H304	H	0.618740	0.514846	0.565654
	H305	H	0.616359	0.508065	0.543013
	O306	O	0.429390	0.362775	0.681027
	H307	H	0.421553	0.350582	0.676829
	H308	H	0.428248	0.363706	0.678346
	O309	O	0.540915	0.435144	0.595497
	H310	H	0.531159	0.434185	0.604026
	H311	H	0.552974	0.438642	0.589007
	O312	O	-0.197237	-0.031397	-0.027488
	H313	H	-0.212694	-0.018057	-0.029371
	H314	H	-0.199603	-0.026546	-0.025942
	O315	O	0.418830	0.381932	0.561788
	H316	H	0.422856	0.384265	0.568724
	H317	H	0.414118	0.388257	0.542702
	O318	O	-0.048332	0.953734	0.947595
	H319	H	-0.056304	0.952676	0.957032
	H320	H	-0.041214	0.954132	0.941859
	O321	O	0.428912	0.502102	0.402976
	H322	H	0.422058	0.482983	0.400336
	H323	H	0.423357	0.504486	0.397145
	O324	O	0.107560	0.887557	-0.123040
	H325	H	0.100187	0.885669	-0.109377
	H326	H	0.117638	0.897113	-0.123184
	O327	O	0.671400	0.615476	0.572138
	H328	H	0.683896	0.621729	0.574802
	H329	H	0.678957	0.619684	0.563782
	O330	O	0.517783	-0.579231	1.579372
	H331	H	0.520594	-0.582711	1.566839
	H332	H	0.505052	-0.580908	1.582844
	O333	O	0.073374	-0.137983	0.965585
	H334	H	0.062578	-0.151099	0.963360
	H335	H	0.089334	-0.128848	0.959393
	O336	O	0.611235	0.506007	0.357333
	H337	H	0.605676	0.502493	0.357010
	H338	H	0.609814	0.499715	0.356755
	O339	O	0.446793	-0.684351	0.409234
	H340	H	0.435294	-0.684996	0.411128
	H341	H	0.456634	-0.691208	0.391029
	O342	O	-0.144085	-0.039779	0.153544
	H343	H	-0.159992	-0.052093	0.153057
	H344	H	-0.127521	-0.056079	0.152874
	O345	O	1.004161	0.095411	1.067421
	H346	H	0.992561	0.094650	1.069279
	H347	H	0.991865	0.092726	1.054898
	O348	O	0.934230	0.951899	-0.070183
	H349	H	0.934160	0.955811	-0.059755
	H350	H	0.928464	0.967482	-0.076006
	O351	O	0.516337	0.537259	0.529266
	H352	H	0.508141	0.535795	0.518138
	H353	H	0.501622	0.542561	0.530011
	O354	O	1.076119	0.060667	1.102272
	H355	H	1.085817	0.067180	1.108733
	H356	H	1.075598	0.070572	1.101974
	O357	O	0.470470	0.359419	0.410601
	H358	H	0.484521	0.357813	0.398508
	H359	H	0.470031	0.347819	0.415888
	O360	O	0.340010	0.521092	0.471046
	H361	H	0.340779	0.544904	0.479499
	H362	H	0.334836	0.508943	0.476610
	O363	O	-0.184681	0.877053	1.050551
	H364	H	-0.183569	0.866096	1.062397
	H365	H	-0.183619	0.870563	1.058465
	O366	O	0.492930	0.588285	0.653025
	H367	H	0.489026	0.599502	0.656699
	H368	H	0.496346	0.583181	0.655915
	O369	O	-0.038302	1.089950	-0.063287
	H370	H	-0.030709	1.088784	-0.060922
	H371	H	-0.041550	1.074352	-0.059725
	O372	O	1.060299	0.808695	1.007610
	H373	H	1.057446	0.804064	1.015803
	H374	H	1.053978	0.799769	0.998389
	O375	O	0.667805	0.277841	0.360559
	H376	H	0.654134	0.274399	0.371967
	H377	H	0.675377	0.285312	0.368329
	O378	O	1.059028	1.079861	0.088772
	H379	H	1.059369	1.076391	0.071133
	H380	H	1.048862	1.092981	0.105272
	O381	O	0.875357	-0.017332	0.054228
	H382	H	0.881881	-0.020392	0.057674
	H383	H	0.897361	-0.023123	0.067378
	O384	O	0.992056	0.808084	0.072276
	H385	H	1.014633	0.824829	0.073646
	H386	H	0.997431	0.793970	0.081246
	O387	O	-0.039805	0.058094	-0.152217
	H388	H	-0.054747	0.050836	-0.143864
	H389	H	-0.035131	0.040854	-0.152516
	O390	O	0.087654	1.143030	0.085624
	H391	H	0.078829	1.157323	0.082621
	H392	H	0.087387	1.134028	0.090794
	O393	O	1.023119	0.968168	0.891743
	H394	H	1.019004	0.961457	0.889887
	H395	H	1.038409	0.952180	0.893775
	O396	O	0.471123	0.540479	0.593531
	H397	H	0.469953	0.544523	0.613803
	H398	H	0.464683	0.528989	0.595809
	O399	O	-0.122061	1.138513	0.862748
	H400	H	-0.114145	1.124195	0.869005
	H401	H	-0.120974	1.148635	0.850743
	O402	O	0.339108	0.470685	0.546748
	H403	H	0.339503	0.463611	0.544265
	H404	H	0.340784	0.483464	0.557543
	O405	O	1.126661	1.024659	0.079294
	H406	H	1.139013	1.027365	0.096780
	H407	H	1.112744	1.041849	0.069014
	O408	O	0.928824	1.075794	0.064458
	H409	H	0.923329	1.071482	0.069248
	H410	H	0.923102	1.068371	0.074820
	O411	O	1.137265	-0.087029	1.026840
	H412	H	1.140364	-0.071900	1.022354
	H413	H	1.127961	-0.070884	1.028536
	O414	O	0.510003	0.554086	0.406431
	H415	H	0.505445	0.562631	0.400688
	H416	H	0.508002	0.550797	0.410960
	O417	O	0.573081	0.473635	0.411308
	H418	H	0.579612	0.479715	0.429727
	H419	H	0.567577	0.479382	0.421727
