data_Molecule from HDF5

_cell_length_a		16.247201
_cell_length_b		16.226212
_cell_length_c		16.195604
_cell_angle_alpha	90.013793
_cell_angle_beta	89.997053
_cell_angle_gamma	89.663981
_symmetry_space_group_name_H-M	'P 1'
_symmetry_Int_Tables_number		1

loop_
	_symmetry_equiv_pos_as_xyz
	x,y,z

loop_
	_atom_site_label
	_atom_site_type_symbol
	_atom_site_fract_x
	_atom_site_fract_y
	_atom_site_fract_z
	H0	H	0.403808	0.841174	0.722843
	H1	H	0.598785	0.170228	0.721286
	H2	H	0.600073	0.840869	0.293524
	H3	H	0.401431	0.170078	0.294386
	H4	H	0.715885	0.405353	0.843732
	H5	H	0.715738	0.605781	0.171589
	H6	H	0.286251	0.605666	0.843444
	H7	H	0.288707	0.408274	0.171807
	H8	H	0.837878	0.719958	0.409761
	H9	H	0.166248	0.718151	0.606336
	H10	H	0.836342	0.293256	0.606398
	H11	H	0.164938	0.289098	0.408634
	H12	H	0.836539	0.407882	0.722206
	H13	H	0.165595	0.602590	0.722161
	H14	H	0.837995	0.605930	0.293556
	H15	H	0.166340	0.406277	0.293934
	H16	H	0.402009	0.720034	0.843607
	H17	H	0.597142	0.717992	0.172676
	H18	H	0.601244	0.290383	0.844239
	H19	H	0.403135	0.293154	0.171913
	H20	H	0.717531	0.841521	0.408542
	H21	H	0.716231	0.169306	0.608224
	H22	H	0.287439	0.841090	0.607443
	H23	H	0.285075	0.168911	0.409378
	H24	H	0.904849	0.340683	0.221560
	H25	H	0.096863	0.670174	0.220089
	H26	H	0.099522	0.341495	0.794156
	H27	H	0.902730	0.670124	0.794389
	H28	H	0.215511	0.905396	0.343456
	H29	H	0.214334	0.103048	0.672171
	H30	H	0.785244	0.106109	0.343373
	H31	H	0.788211	0.908175	0.672025
	H32	H	0.336944	0.220900	0.909111
	H33	H	0.665153	0.218685	0.105835
	H34	H	0.336505	0.794008	0.106199
	H35	H	0.663958	0.789436	0.908253
	H36	H	0.336615	0.908995	0.220965
	H37	H	0.664732	0.102868	0.222050
	H38	H	0.337122	0.105572	0.793482
	H39	H	0.665426	0.906026	0.793607
	H40	H	0.901443	0.221286	0.343781
	H41	H	0.099344	0.218814	0.672257
	H42	H	0.100001	0.791569	0.343017
	H43	H	0.904673	0.793419	0.672186
	H44	H	0.215745	0.341228	0.909364
	H45	H	0.213070	0.669568	0.106113
	H46	H	0.787027	0.341404	0.106759
	H47	H	0.785222	0.669412	0.909025
	H48	H	0.406721	0.123362	0.603557
	H49	H	0.594973	0.888886	0.601240
	H50	H	0.597478	0.126051	0.406480
	H51	H	0.403246	0.884201	0.405032
	H52	H	0.588775	0.411868	0.123916
	H53	H	0.596234	0.583866	0.893515
	H54	H	0.401420	0.602546	0.127825
	H55	H	0.410279	0.421367	0.892525
	H56	H	0.119359	0.597878	0.413977
	H57	H	0.885301	0.600194	0.599016
	H58	H	0.115893	0.418138	0.599562
	H59	H	0.888505	0.418923	0.422051
	H60	H	0.120421	0.409538	0.607200
	H61	H	0.883494	0.598696	0.602159
	H62	H	0.119332	0.599379	0.412490
	H63	H	0.883225	0.417891	0.405773
	H64	H	0.406625	0.595119	0.125649
	H65	H	0.579155	0.601906	0.893149
	H66	H	0.597037	0.410021	0.128165
	H67	H	0.414274	0.407125	0.889737
	H68	H	0.584567	0.119946	0.415390
	H69	H	0.595185	0.888913	0.599150
	H70	H	0.408908	0.121536	0.599442
	H71	H	0.418573	0.890756	0.413427
	H72	H	0.910296	0.622789	0.104410
	H73	H	0.089888	0.386482	0.107941
	H74	H	0.086963	0.619378	0.921547
	H75	H	0.903422	0.386567	0.916317
	H76	H	0.100394	0.917228	0.625228
	H77	H	0.087353	0.099350	0.391399
	H78	H	0.905733	0.111151	0.629228
	H79	H	0.904362	0.915677	0.389204
	H80	H	0.616184	0.091618	0.913409
	H81	H	0.383930	0.093204	0.104475
	H82	H	0.613213	0.921829	0.094018
	H83	H	0.384413	0.923098	0.908169
	H84	H	0.620651	0.913365	0.111991
	H85	H	0.379442	0.106902	0.105679
	H86	H	0.621281	0.102979	0.909696
	H87	H	0.380107	0.904357	0.910019
	H88	H	0.898272	0.090847	0.625296
	H89	H	0.097276	0.101371	0.388249
	H90	H	0.087918	0.912026	0.622854
	H91	H	0.912815	0.915219	0.392022
	H92	H	0.102589	0.624560	0.918010
	H93	H	0.093384	0.390841	0.092997
	H94	H	0.909020	0.620341	0.095956
	H95	H	0.910570	0.387592	0.910534
	H96	H	0.403802	0.123054	0.599175
	H97	H	0.596499	0.887782	0.600523
	H98	H	0.599151	0.121799	0.422841
	H99	H	0.403254	0.888507	0.423550
	H100	H	0.594726	0.418946	0.124099
	H101	H	0.602681	0.606809	0.884915
	H102	H	0.410751	0.602832	0.124979
	H103	H	0.400074	0.411573	0.886667
	H104	H	0.119637	0.599341	0.414158
	H105	H	0.884089	0.602459	0.601018
	H106	H	0.117435	0.406169	0.595280
	H107	H	0.881873	0.404196	0.415917
	H108	H	0.901918	0.623875	0.100228
	H109	H	0.104837	0.384349	0.102836
	H110	H	0.091005	0.624685	0.906006
	H111	H	0.911204	0.390300	0.919295
	H112	H	0.097825	0.904336	0.628022
	H113	H	0.095764	0.092104	0.391316
	H114	H	0.919132	0.095244	0.620360
	H115	H	0.908186	0.907498	0.387651
	H116	H	0.617124	0.101489	0.920858
	H117	H	0.385365	0.101552	0.093749
	H118	H	0.619373	0.900994	0.094700
	H119	H	0.387039	0.914483	0.925057
	C120	C	0.379298	0.013950	0.629464
	C121	C	0.623073	0.997078	0.629134
	C122	C	0.623176	0.013848	0.385863
	C123	C	0.379204	0.996580	0.386000
	C124	C	0.622345	0.384175	0.016683
	C125	C	0.621388	0.626525	0.999329
	C126	C	0.378415	0.628239	0.016741
	C127	C	0.379973	0.384852	0.998546
	C128	C	0.010647	0.627489	0.385861
	C129	C	0.993011	0.627712	0.629185
	C130	C	0.009231	0.383650	0.629617
	C131	C	0.993041	0.383917	0.385919
	C132	C	0.879201	0.513938	0.129634
	C133	C	0.123199	0.496311	0.129242
	C134	C	0.122335	0.514151	0.886443
	C135	C	0.879430	0.496695	0.886652
	C136	C	0.123325	0.883065	0.516505
	C137	C	0.121829	0.125977	0.499256
	C138	C	0.878932	0.127498	0.516269
	C139	C	0.880481	0.884471	0.498558
	C140	C	0.509525	0.127738	0.885881
	C141	C	0.491873	0.128017	0.129527
	C142	C	0.509178	0.884360	0.128981
	C143	C	0.492103	0.884322	0.885680
	C144	C	0.383603	0.890044	0.684447
	C145	C	0.619593	0.121062	0.684065
	C146	C	0.620818	0.890146	0.330980
	C147	C	0.380983	0.120685	0.331841
	C148	C	0.677875	0.385647	0.892892
	C149	C	0.676868	0.624963	0.122863
	C150	C	0.323789	0.625429	0.892740
	C151	C	0.325956	0.387869	0.122768
	C152	C	0.886891	0.682449	0.389370
	C153	C	0.117080	0.680839	0.626815
	C154	C	0.885609	0.329969	0.627085
	C155	C	0.116309	0.327738	0.388548
	C156	C	0.885634	0.387296	0.684525
	C157	C	0.116660	0.623228	0.684150
	C158	C	0.887023	0.625733	0.331325
	C159	C	0.116879	0.385889	0.331481
	C160	C	0.381450	0.682353	0.892644
	C161	C	0.618222	0.681032	0.123279
	C162	C	0.621168	0.328280	0.893211
	C163	C	0.382727	0.330444	0.122641
	C164	C	0.679093	0.890349	0.388135
	C165	C	0.677809	0.120658	0.627725
	C166	C	0.325502	0.890039	0.627350
	C167	C	0.322998	0.120135	0.388780
	C168	C	0.883183	0.389962	0.184333
	C169	C	0.118438	0.620694	0.183229
	C170	C	0.120189	0.390514	0.831665
	C171	C	0.881760	0.620857	0.831613
	C172	C	0.178011	0.885059	0.392473
	C173	C	0.176544	0.123253	0.623174
	C174	C	0.823416	0.125773	0.392292
	C175	C	0.825981	0.887445	0.622819
	C176	C	0.386013	0.183013	0.888617
	C177	C	0.615758	0.181543	0.126651
	C178	C	0.385528	0.830901	0.126269
	C179	C	0.615296	0.827757	0.887954
	C180	C	0.385515	0.888376	0.183360
	C181	C	0.615527	0.124048	0.184375
	C182	C	0.386287	0.125722	0.831008
	C183	C	0.616147	0.885862	0.831253
	C184	C	0.881117	0.182893	0.392436
	C185	C	0.119467	0.180929	0.623225
	C186	C	0.120706	0.828522	0.392442
	C187	C	0.883616	0.830386	0.622867
	C188	C	0.177907	0.390538	0.889006
	C189	C	0.176177	0.620458	0.126700
	C190	C	0.824749	0.390168	0.127450
	C191	C	0.823603	0.620531	0.888639
	C192	C	0.400211	0.100357	0.607339
	C193	C	0.601902	0.910702	0.606875
	C194	C	0.600483	0.100166	0.408229
	C195	C	0.401665	0.910126	0.407637
	C196	C	0.599950	0.406872	0.102822
	C197	C	0.599259	0.604240	0.912888
	C198	C	0.399927	0.606655	0.103633
	C199	C	0.401729	0.406834	0.911947
	C200	C	0.097141	0.605390	0.407326
	C201	C	0.906533	0.606736	0.607155
	C202	C	0.095663	0.405039	0.607337
	C203	C	0.906684	0.406897	0.408084
	C204	C	0.900735	0.599985	0.106972
	C205	C	0.102366	0.409785	0.107629
	C206	C	0.099891	0.600625	0.908575
	C207	C	0.901788	0.410491	0.908953
	C208	C	0.101817	0.904891	0.603144
	C209	C	0.099830	0.104151	0.412579
	C210	C	0.901106	0.105552	0.602695
	C211	C	0.902053	0.906269	0.411982
	C212	C	0.595911	0.105262	0.908050
	C213	C	0.405249	0.106968	0.107585
	C214	C	0.595615	0.905656	0.106761
	C215	C	0.406171	0.907226	0.907859
	Zn216	Zn	0.501647	0.005965	0.757333
	Zn217	Zn	0.500475	0.005522	0.257565
	Zn218	Zn	0.750283	0.505098	0.007616
	Zn219	Zn	0.251234	0.505699	0.007718
	Zn220	Zn	0.002242	0.756046	0.507646
	Zn221	Zn	0.000759	0.255066	0.508156
	Zn222	Zn	0.001146	0.505538	0.757419
	Zn223	Zn	0.001879	0.505692	0.257504
	Zn224	Zn	0.500645	0.755863	0.007614
	Zn225	Zn	0.500984	0.256450	0.007513
	Zn226	Zn	0.751485	0.005842	0.507795
	Zn227	Zn	0.250616	0.004430	0.507442
	N228	N	0.416295	0.967987	0.685818
	N229	N	0.586275	0.043297	0.684948
	N230	N	0.586571	0.967992	0.329681
	N231	N	0.415513	0.043000	0.330178
	N232	N	0.678894	0.419666	0.970726
	N233	N	0.679000	0.591884	0.044605
	N234	N	0.321592	0.592702	0.971128
	N235	N	0.323918	0.420851	0.044504
	N236	N	0.964952	0.683931	0.422302
	N237	N	0.039216	0.683642	0.593355
	N238	N	0.963419	0.327700	0.593453
	N239	N	0.038204	0.326252	0.421472
	N240	N	0.963613	0.419861	0.686213
	N241	N	0.038380	0.591149	0.686015
	N242	N	0.964871	0.592131	0.329013
	N243	N	0.039113	0.420147	0.329805
	N244	N	0.414411	0.684455	0.970861
	N245	N	0.584500	0.682127	0.045344
	N246	N	0.587240	0.327393	0.970967
	N247	N	0.415884	0.328817	0.044405
	N248	N	0.680633	0.968326	0.421518
	N249	N	0.680232	0.042659	0.594088
	N250	N	0.322503	0.968061	0.593948
	N251	N	0.321942	0.042047	0.421838
	N252	N	0.916385	0.467828	0.185550
	N253	N	0.086260	0.542493	0.185001
	N254	N	0.086430	0.468368	0.830001
	N255	N	0.915975	0.542901	0.830325
	N256	N	0.179908	0.918456	0.470627
	N257	N	0.177996	0.089744	0.545123
	N258	N	0.821929	0.092347	0.470359
	N259	N	0.824055	0.920690	0.544703
	N260	N	0.463825	0.184499	0.921907
	N261	N	0.537925	0.183964	0.093220
	N262	N	0.463414	0.828478	0.093025
	N263	N	0.537367	0.826734	0.921266
	N264	N	0.463438	0.921020	0.184998
	N265	N	0.537436	0.091796	0.186467
	N266	N	0.464170	0.091991	0.829345
	N267	N	0.538767	0.920550	0.829783
	N268	N	0.914772	0.184189	0.470319
	N269	N	0.086154	0.182627	0.545171
	N270	N	0.087486	0.827304	0.470471
	N271	N	0.916577	0.828417	0.544677
	N272	N	0.179477	0.468618	0.922259
	N273	N	0.179426	0.542240	0.093756
	N274	N	0.822046	0.468100	0.094080
	N275	N	0.821796	0.542472	0.921802
	O276	O	0.521228	0.493664	0.499495
	H277	H	0.524262	0.495303	0.506784
	H278	H	0.527259	0.493042	0.491397
	O279	O	-0.017270	-0.068387	-0.047541
	H280	H	-0.017380	-0.074457	-0.048441
	H281	H	-0.013628	-0.068986	-0.035446
	O282	O	0.537563	0.452006	0.494772
	H283	H	0.526662	0.444131	0.496556
	H284	H	0.531616	0.462400	0.492201
	O285	O	0.585993	0.473634	0.475277
	H286	H	0.588070	0.472065	0.474606
	H287	H	0.595771	0.465860	0.471934
	O288	O	0.972821	-0.064025	-0.033405
	H289	H	0.974621	-0.057765	-0.040406
	H290	H	0.969568	-0.072115	-0.031679
	O291	O	-0.453593	0.458082	-0.509228
	H292	H	-0.454337	0.456095	-0.508739
	H293	H	-0.446065	0.458666	-0.520042
	O294	O	0.472193	0.445659	0.521812
	H295	H	0.466320	0.453359	0.519090
	H296	H	0.469124	0.443531	0.535396
	O297	O	0.563009	1.510181	-0.485401
	H298	H	0.574712	1.500168	-0.483668
	H299	H	0.559410	1.511023	-0.488077
	O300	O	1.018985	-0.061768	0.920616
	H301	H	1.016267	-0.060071	0.911440
	H302	H	1.012494	-0.064552	0.917159
	O303	O	0.501642	0.437768	0.488074
	H304	H	0.490269	0.443586	0.493341
	H305	H	0.497948	0.432486	0.491200
	O306	O	0.007591	0.925793	0.987972
	H307	H	0.014939	0.919798	0.993015
	H308	H	0.005420	0.927137	0.986213
	O309	O	0.489304	0.518860	0.477550
	H310	H	0.506708	0.513338	0.468144
	H311	H	0.494115	0.517541	0.481624
