data_Molecule from HDF5

_cell_length_a		16.153413
_cell_length_b		16.182623
_cell_length_c		16.301354
_cell_angle_alpha	90.264359
_cell_angle_beta	89.833211
_cell_angle_gamma	89.630679
_symmetry_space_group_name_H-M	'P 1'
_symmetry_Int_Tables_number		1

loop_
	_symmetry_equiv_pos_as_xyz
	x,y,z

loop_
	_atom_site_label
	_atom_site_type_symbol
	_atom_site_fract_x
	_atom_site_fract_y
	_atom_site_fract_z
	H0	H	0.402918	0.835775	0.714457
	H1	H	0.600512	0.164038	0.715202
	H2	H	0.605828	0.836256	0.282594
	H3	H	0.401891	0.163833	0.285554
	H4	H	0.718159	0.400649	0.834664
	H5	H	0.713581	0.599028	0.162215
	H6	H	0.287589	0.597638	0.834473
	H7	H	0.286101	0.402007	0.161537
	H8	H	0.837178	0.714755	0.402376
	H9	H	0.167675	0.711960	0.596411
	H10	H	0.834644	0.290722	0.596193
	H11	H	0.166336	0.284876	0.399358
	H12	H	0.837036	0.402972	0.714388
	H13	H	0.166297	0.599892	0.714071
	H14	H	0.837379	0.600881	0.285989
	H15	H	0.166015	0.398810	0.282756
	H16	H	0.401946	0.715382	0.834832
	H17	H	0.598733	0.714863	0.161678
	H18	H	0.602835	0.283486	0.835197
	H19	H	0.404262	0.288520	0.162843
	H20	H	0.717033	0.835573	0.401690
	H21	H	0.713038	0.165889	0.596898
	H22	H	0.290102	0.834222	0.597066
	H23	H	0.287663	0.164058	0.401913
	H24	H	0.902208	0.336232	0.212712
	H25	H	0.100040	0.664224	0.214188
	H26	H	0.104439	0.337732	0.781278
	H27	H	0.900228	0.665713	0.785587
	H28	H	0.218338	0.899114	0.335791
	H29	H	0.215204	0.099439	0.663164
	H30	H	0.788752	0.097493	0.334938
	H31	H	0.788041	0.904421	0.662776
	H32	H	0.337402	0.213764	0.902466
	H33	H	0.667557	0.212246	0.096517
	H34	H	0.336796	0.789154	0.097075
	H35	H	0.666447	0.783611	0.899773
	H36	H	0.338706	0.901149	0.215169
	H37	H	0.667529	0.097722	0.212483
	H38	H	0.338316	0.100990	0.785707
	H39	H	0.666833	0.898489	0.784197
	H40	H	0.903212	0.214099	0.334918
	H41	H	0.098973	0.216404	0.662554
	H42	H	0.103101	0.782610	0.336331
	H43	H	0.904320	0.788026	0.662989
	H44	H	0.216211	0.336244	0.897585
	H45	H	0.212404	0.665443	0.096703
	H46	H	0.789114	0.336114	0.095798
	H47	H	0.786647	0.665469	0.902391
	H48	H	0.406259	0.118289	0.592575
	H49	H	0.590509	0.883449	0.594119
	H50	H	0.590057	0.118756	0.400541
	H51	H	0.400024	0.878245	0.403776
	H52	H	0.598327	0.415114	0.114103
	H53	H	0.584254	0.594240	0.884281
	H54	H	0.414951	0.604695	0.114882
	H55	H	0.405610	0.406427	0.880977
	H56	H	0.119993	0.587808	0.401036
	H57	H	0.882588	0.591024	0.601261
	H58	H	0.117865	0.411113	0.591704
	H59	H	0.883115	0.400119	0.412021
	H60	H	0.119195	0.405743	0.592696
	H61	H	0.881357	0.603128	0.592831
	H62	H	0.121407	0.595929	0.405926
	H63	H	0.887444	0.417167	0.407763
	H64	H	0.394545	0.596913	0.119641
	H65	H	0.601450	0.598833	0.876814
	H66	H	0.587232	0.404796	0.113052
	H67	H	0.410681	0.409896	0.883116
	H68	H	0.590859	0.115504	0.411342
	H69	H	0.597830	0.883288	0.586567
	H70	H	0.408567	0.117288	0.596158
	H71	H	0.418703	0.881294	0.396190
	H72	H	0.916760	0.615351	0.090193
	H73	H	0.099845	0.382569	0.085493
	H74	H	0.094903	0.617518	0.911188
	H75	H	0.912230	0.383771	0.905379
	H76	H	0.097236	0.905153	0.616320
	H77	H	0.086650	0.092785	0.384848
	H78	H	0.902708	0.094459	0.617025
	H79	H	0.905114	0.912510	0.382808
	H80	H	0.619020	0.096585	0.917749
	H81	H	0.383571	0.102754	0.086835
	H82	H	0.615700	0.913602	0.084299
	H83	H	0.380372	0.908828	0.891946
	H84	H	0.622851	0.909185	0.102051
	H85	H	0.388416	0.084665	0.090171
	H86	H	0.617588	0.078990	0.904470
	H87	H	0.382641	0.895702	0.914186
	H88	H	0.911245	0.092912	0.614315
	H89	H	0.098236	0.098480	0.379710
	H90	H	0.096590	0.908505	0.615514
	H91	H	0.917029	0.907353	0.384567
	H92	H	0.098093	0.621576	0.902418
	H93	H	0.095957	0.379317	0.098633
	H94	H	0.899469	0.619630	0.088774
	H95	H	0.910024	0.383240	0.905713
	H96	H	0.409733	0.116985	0.592379
	H97	H	0.599710	0.879324	0.596771
	H98	H	0.599153	0.119073	0.405804
	H99	H	0.414989	0.886270	0.415553
	H100	H	0.600339	0.400817	0.118225
	H101	H	0.598456	0.581450	0.883112
	H102	H	0.410301	0.583107	0.110547
	H103	H	0.411689	0.403764	0.881288
	H104	H	0.117280	0.588258	0.410074
	H105	H	0.887139	0.590561	0.587125
	H106	H	0.118081	0.407248	0.587480
	H107	H	0.880030	0.405537	0.395017
	H108	H	0.907438	0.621599	0.103868
	H109	H	0.086353	0.385238	0.089039
	H110	H	0.088804	0.618014	0.903377
	H111	H	0.910946	0.382988	0.905082
	H112	H	0.094438	0.906020	0.615749
	H113	H	0.098945	0.085142	0.384201
	H114	H	0.908334	0.100992	0.616887
	H115	H	0.907019	0.900120	0.378893
	H116	H	0.625015	0.098039	0.896333
	H117	H	0.381385	0.095361	0.103692
	H118	H	0.623015	0.896168	0.087945
	H119	H	0.390566	0.921438	0.912668
	C120	C	0.380405	0.008361	0.621863
	C121	C	0.623644	0.991377	0.620863
	C122	C	0.623454	0.008955	0.377439
	C123	C	0.381333	0.990887	0.377255
	C124	C	0.624715	0.377871	0.007148
	C125	C	0.622678	0.621092	0.989588
	C126	C	0.378772	0.622902	0.006693
	C127	C	0.380318	0.378740	0.990125
	C128	C	0.010491	0.620321	0.378440
	C129	C	0.993014	0.622545	0.621593
	C130	C	0.009314	0.380189	0.619376
	C131	C	0.992900	0.378242	0.376164
	C132	C	0.879820	0.509678	0.121065
	C133	C	0.122274	0.491185	0.119949
	C134	C	0.123224	0.510056	0.876434
	C135	C	0.880992	0.492423	0.877583
	C136	C	0.125177	0.877183	0.508009
	C137	C	0.122853	0.121521	0.491066
	C138	C	0.878962	0.123659	0.507724
	C139	C	0.881012	0.879171	0.490296
	C140	C	0.511475	0.120766	0.878381
	C141	C	0.493567	0.121762	0.121333
	C142	C	0.511244	0.878835	0.120281
	C143	C	0.493549	0.878538	0.877417
	C144	C	0.382969	0.884601	0.676616
	C145	C	0.620840	0.115201	0.676731
	C146	C	0.624130	0.885366	0.321331
	C147	C	0.382174	0.114821	0.323308
	C148	C	0.680356	0.379985	0.883786
	C149	C	0.676910	0.619706	0.113138
	C150	C	0.324756	0.619018	0.883385
	C151	C	0.324894	0.381790	0.113022
	C152	C	0.886281	0.676529	0.382019
	C153	C	0.117864	0.675724	0.617885
	C154	C	0.884627	0.327262	0.616777
	C155	C	0.117074	0.322519	0.378463
	C156	C	0.885889	0.382822	0.675927
	C157	C	0.117278	0.619691	0.676068
	C158	C	0.886329	0.619978	0.324072
	C159	C	0.116835	0.379064	0.320559
	C160	C	0.381514	0.677568	0.883804
	C161	C	0.619294	0.676587	0.112962
	C162	C	0.622850	0.321958	0.883951
	C163	C	0.383248	0.325120	0.113365
	C164	C	0.679611	0.884898	0.380354
	C165	C	0.676447	0.116195	0.617648
	C166	C	0.327051	0.883792	0.617983
	C167	C	0.325501	0.114966	0.381262
	C168	C	0.882158	0.385653	0.175344
	C169	C	0.119979	0.615258	0.175877
	C170	C	0.122849	0.386393	0.820127
	C171	C	0.881371	0.616382	0.823250
	C172	C	0.180106	0.879261	0.384524
	C173	C	0.177439	0.119633	0.614239
	C174	C	0.825340	0.119244	0.384029
	C175	C	0.826055	0.883440	0.614036
	C176	C	0.386982	0.176379	0.881528
	C177	C	0.618082	0.175527	0.117726
	C178	C	0.386396	0.825842	0.117431
	C179	C	0.617383	0.821875	0.879435
	C180	C	0.387488	0.881437	0.176256
	C181	C	0.618021	0.118747	0.175537
	C182	C	0.387426	0.120315	0.823662
	C183	C	0.617615	0.878976	0.822183
	C184	C	0.882206	0.177014	0.384054
	C185	C	0.119412	0.177550	0.614057
	C186	C	0.123048	0.821449	0.384767
	C187	C	0.883598	0.825500	0.614031
	C188	C	0.178826	0.385779	0.877967
	C189	C	0.175899	0.615826	0.117475
	C190	C	0.826096	0.385279	0.116921
	C191	C	0.824756	0.616364	0.881054
	C192	C	0.401902	0.095014	0.600259
	C193	C	0.602587	0.904515	0.598757
	C194	C	0.600238	0.095468	0.399606
	C195	C	0.404333	0.904254	0.398792
	C196	C	0.602085	0.400411	0.092910
	C197	C	0.601162	0.598256	0.903815
	C198	C	0.400224	0.601394	0.092887
	C199	C	0.402671	0.400195	0.904011
	C200	C	0.097058	0.597429	0.399439
	C201	C	0.906084	0.601207	0.600010
	C202	C	0.096177	0.401488	0.597088
	C203	C	0.906067	0.401012	0.398309
	C204	C	0.901432	0.596461	0.100328
	C205	C	0.100628	0.404803	0.097665
	C206	C	0.100715	0.596656	0.899016
	C207	C	0.904254	0.405645	0.899050
	C208	C	0.102914	0.899767	0.593710
	C209	C	0.101115	0.098671	0.405083
	C210	C	0.900741	0.102469	0.593799
	C211	C	0.903186	0.900438	0.404361
	C212	C	0.598212	0.097899	0.899758
	C213	C	0.406887	0.100499	0.099835
	C214	C	0.597950	0.900023	0.098081
	C215	C	0.407013	0.901906	0.899666
	Zn216	Zn	0.502465	-0.000157	0.749433
	Zn217	Zn	0.502782	-0.000056	0.248925
	Zn218	Zn	0.752533	0.500939	-0.001107
	Zn219	Zn	0.250127	0.500343	-0.001554
	Zn220	Zn	0.002294	0.749377	0.499149
	Zn221	Zn	0.000801	0.251500	0.498489
	Zn222	Zn	0.001888	0.501552	0.749067
	Zn223	Zn	0.001847	0.500159	0.248901
	Zn224	Zn	0.501625	0.750272	-0.001352
	Zn225	Zn	0.502264	0.249375	-0.001091
	Zn226	Zn	0.751450	0.000982	0.498998
	Zn227	Zn	0.253099	-0.000708	0.499687
	N228	N	0.415257	0.963122	0.679216
	N229	N	0.588727	0.036631	0.678753
	N230	N	0.589816	0.963595	0.319702
	N231	N	0.415996	0.036593	0.320704
	N232	N	0.681617	0.414065	0.961362
	N233	N	0.678875	0.585461	0.035657
	N234	N	0.322984	0.585618	0.960900
	N235	N	0.322758	0.414467	0.035325
	N236	N	0.964462	0.676777	0.415360
	N237	N	0.039589	0.677575	0.584720
	N238	N	0.962548	0.325449	0.582409
	N239	N	0.038959	0.322003	0.412357
	N240	N	0.964464	0.415249	0.677632
	N241	N	0.038686	0.587429	0.678294
	N242	N	0.964552	0.585852	0.321577
	N243	N	0.038412	0.413059	0.319160
	N244	N	0.414232	0.680081	0.961668
	N245	N	0.586248	0.677545	0.035322
	N246	N	0.588997	0.320473	0.961482
	N247	N	0.416919	0.323079	0.035686
	N248	N	0.679494	0.962699	0.414430
	N249	N	0.678236	0.038137	0.583646
	N250	N	0.325370	0.961786	0.584639
	N251	N	0.324734	0.036750	0.413987
	N252	N	0.914627	0.464044	0.178197
	N253	N	0.087327	0.536993	0.177417
	N254	N	0.089084	0.464671	0.818941
	N255	N	0.915448	0.538089	0.820900
	N256	N	0.181520	0.913367	0.461944
	N257	N	0.179689	0.085374	0.536718
	N258	N	0.823222	0.086543	0.461779
	N259	N	0.824160	0.915849	0.536127
	N260	N	0.465077	0.176737	0.915073
	N261	N	0.539756	0.177927	0.084959
	N262	N	0.464449	0.823874	0.083355
	N263	N	0.539179	0.821385	0.913101
	N264	N	0.465958	0.913804	0.177997
	N265	N	0.539462	0.086074	0.177911
	N266	N	0.465808	0.086410	0.821493
	N267	N	0.539611	0.913589	0.820756
	N268	N	0.914677	0.179897	0.462045
	N269	N	0.086490	0.178977	0.536283
	N270	N	0.089290	0.820063	0.462361
	N271	N	0.917087	0.822863	0.536334
	N272	N	0.179299	0.463683	0.912351
	N273	N	0.177575	0.537799	0.083402
	N274	N	0.824470	0.463394	0.083960
	N275	N	0.824655	0.538380	0.914289
	O276	O	1.008822	1.029575	0.029726
	H277	H	1.015099	1.026679	0.021469
	H278	H	1.003764	1.030048	0.023334
	O279	O	0.010787	0.035186	0.016603
	H280	H	0.007944	0.040564	0.023639
	H281	H	0.018238	0.029511	0.017001
	O282	O	0.062883	-0.032394	0.981246
	H283	H	0.063166	-0.030117	0.978699
	H284	H	0.055816	-0.032123	0.965761
	O285	O	0.507472	0.526419	0.442131
	H286	H	0.515009	0.521640	0.438760
	H287	H	0.506769	0.509755	0.438359
	O288	O	0.469836	0.470730	0.520443
	H289	H	0.479119	0.476845	0.522478
	H290	H	0.474512	0.470767	0.522277
	O291	O	0.523442	0.461230	0.499816
	H292	H	0.531392	0.462412	0.499027
	H293	H	0.525871	0.469511	0.503715
	O294	O	-0.528393	-0.542621	0.442100
	H295	H	-0.526036	-0.549407	0.441929
	H296	H	-0.522481	-0.540441	0.441346
	O297	O	0.506499	0.494997	0.497285
	H298	H	0.513238	0.496674	0.494549
	H299	H	0.498314	0.493885	0.497300
	O300	O	0.075569	1.030000	0.921703
	H301	H	0.077513	1.037042	0.923174
	H302	H	0.081114	1.030028	0.916968
	O303	O	0.527648	0.465953	0.443032
	H304	H	0.521389	0.470252	0.440052
	H305	H	0.516617	0.458347	0.446598
	O306	O	0.006976	0.054147	0.972701
	H307	H	-0.003387	0.052098	0.975822
	H308	H	0.001297	0.058537	0.976843
	O309	O	1.069349	1.016150	1.056124
	H310	H	1.079867	1.012273	1.055363
	H311	H	1.073179	1.010955	1.052758
	O312	O	0.482681	0.499427	0.476961
	H313	H	0.492347	0.507443	0.475655
	H314	H	0.479404	0.495554	0.470944
	O315	O	0.570896	0.481933	0.445688
	H316	H	0.567769	0.486810	0.440865
	H317	H	0.577231	0.469427	0.443967
	O318	O	0.064540	0.998406	-0.060870
	H319	H	0.079402	1.002230	-0.069551
	H320	H	0.064206	0.998536	-0.053434
	O321	O	1.009608	1.113408	-0.077705
	H322	H	1.017398	1.106752	-0.067927
	H323	H	1.015891	1.121587	-0.073217
