data_Molecule from HDF5

_cell_length_a		16.564576
_cell_length_b		16.485520
_cell_length_c		16.514721
_cell_angle_alpha	89.954237
_cell_angle_beta	90.115315
_cell_angle_gamma	90.006756
_symmetry_space_group_name_H-M	'P 1'
_symmetry_Int_Tables_number		1

loop_
	_symmetry_equiv_pos_as_xyz
	x,y,z

loop_
	_atom_site_label
	_atom_site_type_symbol
	_atom_site_fract_x
	_atom_site_fract_y
	_atom_site_fract_z
	H0	H	0.390922	0.859002	0.716960
	H1	H	0.603163	0.172231	0.718020
	H2	H	0.598690	0.856304	0.276607
	H3	H	0.391627	0.172841	0.273894
	H4	H	0.719663	0.406830	0.841040
	H5	H	0.718560	0.621921	0.152487
	H6	H	0.275506	0.617932	0.837860
	H7	H	0.271781	0.406754	0.150773
	H8	H	0.839619	0.738797	0.387857
	H9	H	0.151608	0.735018	0.599633
	H10	H	0.837149	0.294231	0.599535
	H11	H	0.151777	0.293319	0.390046
	H12	H	0.837323	0.410952	0.715366
	H13	H	0.150679	0.619610	0.717465
	H14	H	0.839639	0.622947	0.271662
	H15	H	0.151447	0.410101	0.273844
	H16	H	0.392726	0.734377	0.837099
	H17	H	0.600243	0.736306	0.153478
	H18	H	0.601640	0.292527	0.838624
	H19	H	0.389887	0.292218	0.151423
	H20	H	0.719337	0.858487	0.388083
	H21	H	0.719285	0.172289	0.602586
	H22	H	0.274219	0.858735	0.600844
	H23	H	0.272818	0.171803	0.388289
	H24	H	0.891948	0.357874	0.216188
	H25	H	0.099888	0.673395	0.214952
	H26	H	0.097663	0.354961	0.776977
	H27	H	0.892058	0.672471	0.776544
	H28	H	0.214272	0.913347	0.336776
	H29	H	0.216921	0.119167	0.652993
	H30	H	0.775374	0.120533	0.337460
	H31	H	0.776249	0.911598	0.652129
	H32	H	0.337881	0.235085	0.890463
	H33	H	0.652026	0.235870	0.099366
	H34	H	0.336402	0.798513	0.095386
	H35	H	0.652095	0.793855	0.891951
	H36	H	0.336824	0.914593	0.212626
	H37	H	0.652299	0.119676	0.216777
	H38	H	0.339344	0.121815	0.771670
	H39	H	0.652980	0.911501	0.775596
	H40	H	0.894424	0.235601	0.337582
	H41	H	0.098818	0.233758	0.654733
	H42	H	0.098853	0.795863	0.337049
	H43	H	0.895102	0.797184	0.653331
	H44	H	0.215286	0.356390	0.892384
	H45	H	0.214744	0.672786	0.097988
	H46	H	0.773427	0.358751	0.101944
	H47	H	0.776003	0.672336	0.892602
	H48	H	0.407924	0.127086	0.583874
	H49	H	0.585027	0.903264	0.584155
	H50	H	0.589798	0.129168	0.406125
	H51	H	0.405895	0.901657	0.400776
	H52	H	0.579456	0.432865	0.103809
	H53	H	0.589048	0.605966	0.881404
	H54	H	0.403312	0.605695	0.108796
	H55	H	0.410650	0.421694	0.883095
	H56	H	0.106561	0.608217	0.410369
	H57	H	0.882598	0.605281	0.583749
	H58	H	0.105856	0.426366	0.583127
	H59	H	0.881887	0.423927	0.405483
	H60	H	0.107827	0.426233	0.590251
	H61	H	0.882761	0.603553	0.584087
	H62	H	0.105259	0.598285	0.405999
	H63	H	0.885211	0.426732	0.411179
	H64	H	0.405662	0.603425	0.107686
	H65	H	0.584944	0.600156	0.885254
	H66	H	0.579424	0.419517	0.108164
	H67	H	0.399183	0.424652	0.880495
	H68	H	0.582464	0.127832	0.402473
	H69	H	0.585920	0.904508	0.583815
	H70	H	0.408428	0.127353	0.582106
	H71	H	0.407973	0.904384	0.408154
	H72	H	0.908128	0.629233	0.089647
	H73	H	0.078894	0.403178	0.086932
	H74	H	0.084293	0.627667	0.902956
	H75	H	0.911092	0.404650	0.912506
	H76	H	0.089028	0.926309	0.608765
	H77	H	0.095227	0.103253	0.380270
	H78	H	0.914158	0.105055	0.605785
	H79	H	0.912497	0.923913	0.382251
	H80	H	0.606604	0.103576	0.908851
	H81	H	0.379277	0.104769	0.092389
	H82	H	0.607197	0.929923	0.086039
	H83	H	0.382365	0.930853	0.897624
	H84	H	0.610137	0.921844	0.090475
	H85	H	0.383184	0.109696	0.077138
	H86	H	0.606151	0.102252	0.906654
	H87	H	0.380429	0.917342	0.905491
	H88	H	0.902446	0.110189	0.611236
	H89	H	0.079281	0.096181	0.388165
	H90	H	0.083994	0.927494	0.607132
	H91	H	0.902459	0.924938	0.380186
	H92	H	0.082796	0.626259	0.907076
	H93	H	0.083984	0.404172	0.080085
	H94	H	0.911533	0.624903	0.079932
	H95	H	0.897271	0.399044	0.908632
	H96	H	0.407047	0.128194	0.582554
	H97	H	0.585597	0.903228	0.584111
	H98	H	0.583319	0.125792	0.410092
	H99	H	0.400619	0.901252	0.406934
	H100	H	0.590463	0.427777	0.109727
	H101	H	0.581744	0.607055	0.884080
	H102	H	0.406681	0.606661	0.108461
	H103	H	0.406704	0.432731	0.885424
	H104	H	0.110075	0.606098	0.400189
	H105	H	0.882006	0.604567	0.585566
	H106	H	0.108491	0.420188	0.586476
	H107	H	0.884358	0.430596	0.404949
	H108	H	0.901066	0.629005	0.080886
	H109	H	0.087387	0.400519	0.086880
	H110	H	0.087009	0.627438	0.906645
	H111	H	0.908578	0.399650	0.898069
	H112	H	0.085051	0.922547	0.608554
	H113	H	0.079401	0.114560	0.382122
	H114	H	0.903148	0.097006	0.606279
	H115	H	0.907549	0.932544	0.384461
	H116	H	0.607011	0.104461	0.906699
	H117	H	0.387388	0.095059	0.082165
	H118	H	0.607051	0.921556	0.081327
	H119	H	0.387289	0.930027	0.912255
	C120	C	0.375322	0.023811	0.615721
	C121	C	0.618251	1.007167	0.616861
	C122	C	0.617351	0.023587	0.373957
	C123	C	0.373321	1.006473	0.373147
	C124	C	0.616293	0.393644	0.004093
	C125	C	0.616901	0.636470	0.987539
	C126	C	0.374185	0.636149	0.003826
	C127	C	0.373480	0.393506	0.986482
	C128	C	0.004247	0.637390	0.372852
	C129	C	0.986412	0.635612	0.616026
	C130	C	0.003455	0.393018	0.617676
	C131	C	0.987337	0.394670	0.374933
	C132	C	0.874197	0.524250	0.116780
	C133	C	0.115913	0.506822	0.116178
	C134	C	0.116420	0.522565	0.874035
	C135	C	0.873821	0.505606	0.874782
	C136	C	0.117297	0.894156	0.503434
	C137	C	0.116993	0.136733	0.487429
	C138	C	0.874657	0.136565	0.503825
	C139	C	0.875363	0.894753	0.486480
	C140	C	0.503441	0.136311	0.873901
	C141	C	0.486517	0.136180	0.116773
	C142	C	0.503534	0.893742	0.116646
	C143	C	0.487188	0.893939	0.873650
	C144	C	0.372550	0.905790	0.676610
	C145	C	0.620980	0.125287	0.677678
	C146	C	0.618377	0.904213	0.315378
	C147	C	0.372353	0.125541	0.313646
	C148	C	0.678239	0.389709	0.887124
	C149	C	0.677402	0.639366	0.105865
	C150	C	0.315113	0.637154	0.885052
	C151	C	0.312612	0.389635	0.104134
	C152	C	0.886609	0.698480	0.369734
	C153	C	0.104429	0.695152	0.618232
	C154	C	0.884529	0.333886	0.618552
	C155	C	0.104928	0.334083	0.372091
	C156	C	0.884652	0.391685	0.676331
	C157	C	0.104090	0.637502	0.676555
	C158	C	0.886647	0.640941	0.311809
	C159	C	0.104700	0.392043	0.314220
	C160	C	0.373454	0.694816	0.884645
	C161	C	0.618871	0.696585	0.106036
	C162	C	0.619519	0.332817	0.886115
	C163	C	0.371113	0.332459	0.104387
	C164	C	0.678040	0.905162	0.371349
	C165	C	0.679079	0.125137	0.620265
	C166	C	0.314859	0.905660	0.618717
	C167	C	0.313571	0.125167	0.370483
	C168	C	0.872297	0.405356	0.176900
	C169	C	0.117743	0.625922	0.175020
	C170	C	0.116764	0.402990	0.816151
	C171	C	0.872967	0.624852	0.815978
	C172	C	0.175275	0.894107	0.384389
	C173	C	0.176821	0.138143	0.605981
	C174	C	0.815581	0.138714	0.384690
	C175	C	0.816173	0.892875	0.605173
	C176	C	0.385150	0.195764	0.871522
	C177	C	0.604785	0.196184	0.118698
	C178	C	0.384177	0.836716	0.115671
	C179	C	0.605398	0.834444	0.873153
	C180	C	0.384187	0.894428	0.173643
	C181	C	0.605014	0.138099	0.176729
	C182	C	0.386044	0.139182	0.812688
	C183	C	0.605760	0.892581	0.815212
	C184	C	0.874148	0.196123	0.384671
	C185	C	0.118122	0.195186	0.606653
	C186	C	0.117828	0.835623	0.384492
	C187	C	0.875129	0.836178	0.605644
	C188	C	0.175317	0.403582	0.873434
	C189	C	0.175350	0.625532	0.117247
	C190	C	0.813886	0.405718	0.119751
	C191	C	0.815135	0.624744	0.873654
	C192	C	0.400656	0.106198	0.590027
	C193	C	0.592915	0.925045	0.591073
	C194	C	0.592450	0.105999	0.399010
	C195	C	0.397937	0.923937	0.398156
	C196	C	0.590410	0.419371	0.085894
	C197	C	0.592429	0.611540	0.905116
	C198	C	0.398327	0.612116	0.086775
	C199	C	0.398418	0.419103	0.904365
	C200	C	0.085989	0.611718	0.398357
	C201	C	0.903889	0.611311	0.591374
	C202	C	0.085978	0.417211	0.593622
	C203	C	0.905146	0.419750	0.400056
	C204	C	0.899689	0.606300	0.091038
	C205	C	0.090776	0.424060	0.091613
	C206	C	0.091809	0.605672	0.898576
	C207	C	0.898488	0.422670	0.899316
	C208	C	0.093049	0.918511	0.586606
	C209	C	0.092039	0.111987	0.404937
	C210	C	0.899314	0.111391	0.586183
	C211	C	0.900108	0.919893	0.403794
	C212	C	0.585062	0.110868	0.899884
	C213	C	0.404619	0.110634	0.091126
	C214	C	0.586587	0.917595	0.093018
	C215	C	0.404589	0.918978	0.898112
	Zn216	Zn	0.496066	0.015753	0.744788
	Zn217	Zn	0.495408	0.014894	0.245595
	Zn218	Zn	0.745313	0.514966	-0.003714
	Zn219	Zn	0.245026	0.514769	-0.004657
	Zn220	Zn	-0.004365	0.765253	0.495043
	Zn221	Zn	-0.004145	0.265466	0.495670
	Zn222	Zn	-0.005505	0.514275	0.745817
	Zn223	Zn	-0.004761	0.515402	0.244985
	Zn224	Zn	0.495243	0.765108	-0.004403
	Zn225	Zn	0.494933	0.265253	-0.005165
	Zn226	Zn	0.745907	0.015566	0.494819
	Zn227	Zn	0.246218	0.015772	0.495640
	N228	N	0.409612	0.980273	0.674734
	N229	N	0.584159	0.050655	0.676161
	N230	N	0.581346	0.978723	0.316715
	N231	N	0.408709	0.050763	0.315154
	N232	N	0.676341	0.426884	0.961420
	N233	N	0.676418	0.602670	0.031196
	N234	N	0.315588	0.601383	0.960134
	N235	N	0.313970	0.427005	0.029906
	N236	N	0.960780	0.696776	0.406840
	N237	N	0.030282	0.693951	0.581006
	N238	N	0.959474	0.334470	0.582710
	N239	N	0.030919	0.335690	0.409404
	N240	N	0.959511	0.427473	0.676162
	N241	N	0.029680	0.601158	0.675277
	N242	N	0.960768	0.603711	0.313412
	N243	N	0.030623	0.429239	0.316186
	N244	N	0.409325	0.694450	0.959601
	N245	N	0.582132	0.695153	0.031561
	N246	N	0.581612	0.335084	0.959917
	N247	N	0.408505	0.335008	0.030381
	N248	N	0.677925	0.980636	0.406744
	N249	N	0.677751	0.050593	0.583334
	N250	N	0.316498	0.980192	0.581602
	N251	N	0.314003	0.050142	0.406725
	N252	N	0.908890	0.480036	0.175293
	N253	N	0.081713	0.550948	0.174602
	N254	N	0.081152	0.478276	0.816314
	N255	N	0.908511	0.549671	0.816297
	N256	N	0.174876	0.929640	0.459588
	N257	N	0.176539	0.102916	0.530732
	N258	N	0.815501	0.102823	0.459769
	N259	N	0.816147	0.928583	0.530032
	N260	N	0.459255	0.194300	0.908938
	N261	N	0.530149	0.195153	0.082131
	N262	N	0.459502	0.835951	0.081193
	N263	N	0.530425	0.835008	0.908533
	N264	N	0.459814	0.928654	0.174769
	N265	N	0.530572	0.101520	0.175580
	N266	N	0.460655	0.103080	0.813936
	N267	N	0.531092	0.928747	0.815480
	N268	N	0.909714	0.195258	0.459848
	N269	N	0.081796	0.194724	0.531719
	N270	N	0.082688	0.835358	0.459825
	N271	N	0.910747	0.837034	0.530587
	N272	N	0.175204	0.479014	0.908682
	N273	N	0.174593	0.550392	0.081428
	N274	N	0.815055	0.480517	0.083107
	N275	N	0.815443	0.549413	0.909346
	O276	O	0.876194	1.009774	-0.172879
	H277	H	0.865894	1.020060	-0.186057
	H278	H	0.875811	1.024261	-0.177005
	O279	O	-0.220704	-0.045770	1.212059
	H280	H	-0.221196	-0.079569	1.216658
	H281	H	-0.248217	-0.040611	1.236113
	O282	O	0.715743	0.734571	0.524862
	H283	H	0.728547	0.759590	0.521036
	H284	H	0.703758	0.735008	0.517767
	O285	O	0.298160	0.371144	0.644137
	H286	H	0.311635	0.368617	0.619600
	H287	H	0.305239	0.382176	0.627441
	O288	O	1.052860	-0.128455	0.894773
	H289	H	1.061194	-0.135454	0.901766
	H290	H	1.046303	-0.135618	0.910199
	O291	O	0.688582	0.546979	0.289394
	H292	H	0.691469	0.542201	0.302437
	H293	H	0.698886	0.532644	0.288996
	O294	O	-0.164573	0.181896	0.166549
	H295	H	-0.158808	0.192260	0.146892
	H296	H	-0.184245	0.205026	0.185050
	O297	O	0.967055	-0.195020	0.207577
	H298	H	0.966489	-0.209267	0.211749
	H299	H	0.968667	-0.200778	0.214377
	O300	O	0.164739	-0.173189	0.155932
	H301	H	0.158316	-0.176309	0.151535
	H302	H	0.160203	-0.145908	0.148440
	O303	O	0.178233	0.106081	-0.056278
	H304	H	0.179744	0.101631	-0.047486
	H305	H	0.183700	0.098010	-0.053415
	O306	O	0.965602	-0.011578	0.161812
	H307	H	0.943255	-0.010434	0.173100
	H308	H	0.957757	-0.017521	0.148362
	O309	O	0.707336	0.295214	0.465957
	H310	H	0.736478	0.274626	0.453757
	H311	H	0.705952	0.308306	0.457133
	O312	O	0.153780	-0.028958	-0.074580
	H313	H	0.174535	-0.035772	-0.063090
	H314	H	0.155099	-0.042839	-0.066563
	O315	O	0.273760	0.731747	0.458206
	H316	H	0.279060	0.725628	0.443029
	H317	H	0.249992	0.758378	0.456263
	O318	O	1.083015	0.912703	-0.211583
	H319	H	1.087723	0.908859	-0.187749
	H320	H	1.077588	0.895290	-0.204479
	O321	O	0.151128	0.889114	1.045991
	H322	H	0.163039	0.889362	1.047699
	H323	H	0.149806	0.904730	1.016639
	O324	O	0.804694	0.224045	0.979504
	H325	H	0.802598	0.227857	0.966837
	H326	H	0.792166	0.227811	0.957411
	O327	O	0.278229	0.541014	0.275272
	H328	H	0.266366	0.568138	0.271252
	H329	H	0.263377	0.564024	0.267535
	O330	O	0.550890	0.717731	0.427452
	H331	H	0.546035	0.713788	0.435505
	H332	H	0.539644	0.709774	0.437448
	O333	O	0.635753	0.603383	0.350448
	H334	H	0.633818	0.600479	0.355115
	H335	H	0.632497	0.598295	0.348478
	O336	O	0.694694	0.449386	0.403882
	H337	H	0.674114	0.447430	0.406586
	H338	H	0.699412	0.462767	0.420331
	O339	O	0.404186	0.342929	0.510642
	H340	H	0.394941	0.349057	0.498278
	H341	H	0.407760	0.353067	0.501886
	O342	O	-0.060196	1.042645	0.014430
	H343	H	-0.074691	1.038825	0.020972
	H344	H	-0.059100	1.044809	0.013315
	O345	O	0.490331	0.423542	0.446826
	H346	H	0.482954	0.418469	0.442977
	H347	H	0.481483	0.438022	0.449676
	O348	O	0.452507	0.731137	0.275812
	H349	H	0.480176	0.714026	0.279849
	H350	H	0.463078	0.758604	0.264588
	O351	O	0.107517	-0.043962	1.026971
	H352	H	0.128221	-0.038797	1.026229
	H353	H	0.111781	-0.043014	1.045471
	O354	O	0.817463	-0.028252	0.912979
	H355	H	0.821083	-0.009049	0.914393
	H356	H	0.825291	-0.012924	0.903951
	O357	O	0.479438	0.519490	0.691137
	H358	H	0.463011	0.511816	0.692423
	H359	H	0.471918	0.500704	0.700168
	O360	O	0.666784	0.358072	0.671885
	H361	H	0.651341	0.374185	0.669228
	H362	H	0.650070	0.366294	0.664815
	O363	O	0.363757	0.339010	0.378514
	H364	H	0.344539	0.335567	0.358868
	H365	H	0.352909	0.343799	0.378257
	O366	O	1.131520	-0.097687	0.807115
	H367	H	1.138381	-0.098829	0.803273
	H368	H	1.117264	-0.101553	0.811612
	O369	O	0.051347	-0.077991	0.834074
	H370	H	0.046505	-0.100711	0.841374
	H371	H	0.045730	-0.088264	0.833216
	O372	O	0.014420	0.821091	1.031668
	H373	H	0.018550	0.828505	1.048336
	H374	H	0.022499	0.824096	1.026540
	O375	O	0.822283	-0.139975	-0.192599
	H376	H	0.832864	-0.134776	-0.191483
	H377	H	0.824178	-0.121917	-0.177344
	O378	O	0.844119	0.132328	0.789156
	H379	H	0.844428	0.148736	0.771659
	H380	H	0.857433	0.134131	0.784594
	O381	O	-0.283083	0.735567	-0.281550
	H382	H	-0.281223	0.714208	-0.311434
	H383	H	-0.270409	0.757520	-0.264789
	O384	O	0.067373	0.118395	-0.164051
	H385	H	0.091967	0.119226	-0.156271
	H386	H	0.057302	0.096934	-0.154776
	O387	O	0.203586	1.203127	1.034927
	H388	H	0.208072	1.216239	1.023851
	H389	H	0.195538	1.206300	1.038578
	O390	O	-0.219901	1.058616	0.979542
	H391	H	-0.221198	1.088405	0.993102
	H392	H	-0.230202	1.065843	0.992848
	O393	O	1.186548	0.215631	0.198039
	H394	H	1.181166	0.213211	0.187836
	H395	H	1.151726	0.216264	0.185095
	O396	O	0.287741	0.480810	0.474450
	H397	H	0.283718	0.489112	0.470345
	H398	H	0.282159	0.478816	0.469822
	O399	O	0.658161	0.581447	0.363798
	H400	H	0.649943	0.558390	0.377303
	H401	H	0.676155	0.581658	0.366159
	O402	O	1.299522	0.430473	0.694628
	H403	H	1.282307	0.419414	0.713696
	H404	H	1.299576	0.421652	0.695129
	O405	O	0.392398	0.616962	0.689440
	H406	H	0.409949	0.649638	0.696472
	H407	H	0.393525	0.596993	0.683801
	O408	O	1.001362	1.222080	0.961213
	H409	H	1.008941	1.227157	0.940036
	H410	H	0.997536	1.206146	0.959516
	O411	O	0.533340	0.726866	0.710000
	H412	H	0.552341	0.720360	0.701708
	H413	H	0.533748	0.749829	0.730155
	O414	O	0.097560	0.029532	0.195804
	H415	H	0.088440	0.037144	0.205269
	H416	H	0.084780	0.039915	0.215260
	O417	O	0.478997	0.533900	0.440834
	H418	H	0.480950	0.539665	0.448597
	H419	H	0.482929	0.535186	0.436429
	O420	O	0.953196	0.113994	1.198713
	H421	H	0.935878	0.115034	1.198129
	H422	H	0.930002	0.114205	1.190005
	O423	O	1.084120	1.160458	0.186432
	H424	H	1.081006	1.166564	0.188037
	H425	H	1.063499	1.166190	0.178983
	O426	O	0.279282	0.297140	0.526896
	H427	H	0.285754	0.285698	0.511002
	H428	H	0.265305	0.287835	0.530037
	O429	O	0.606765	0.529659	0.434523
	H430	H	0.598616	0.537569	0.440147
	H431	H	0.594200	0.525449	0.442485
	O432	O	0.885394	0.218123	0.793733
	H433	H	0.910536	0.216494	0.796501
	H434	H	0.891279	0.223656	0.777072
	O435	O	0.466632	0.321881	0.709143
	H436	H	0.449948	0.300319	0.721034
	H437	H	0.476924	0.311713	0.698699
	O438	O	0.571807	0.422668	0.416232
	H439	H	0.556720	0.406696	0.404583
	H440	H	0.562157	0.446912	0.410951
	O441	O	0.700778	0.306109	0.288617
	H442	H	0.693450	0.335868	0.296316
	H443	H	0.671143	0.315912	0.293946
	O444	O	0.545731	0.551624	0.632657
	H445	H	0.556774	0.562956	0.636568
	H446	H	0.542775	0.535132	0.634570
	O447	O	0.802640	-0.186040	1.006773
	H448	H	0.779969	-0.178288	0.999908
	H449	H	0.802350	-0.181189	0.999915
	O450	O	1.710704	0.538144	0.716451
	H451	H	1.700145	0.542440	0.728408
	H452	H	1.728717	0.553845	0.728086
	O453	O	0.283573	0.487870	0.500934
	H454	H	0.285710	0.489670	0.502606
	H455	H	0.274735	0.488827	0.512301
	O456	O	0.034046	1.155528	0.958722
	H457	H	0.043002	1.148279	0.948264
	H458	H	0.012201	1.145678	0.955874
	O459	O	0.424779	0.530430	0.477947
	H460	H	0.415045	0.540359	0.484446
	H461	H	0.420457	0.519216	0.485656
	O462	O	0.491199	0.411238	0.282863
	H463	H	0.491452	0.425591	0.287475
	H464	H	0.487834	0.406758	0.272592
	O465	O	0.271928	0.739150	0.718913
	H466	H	0.269739	0.720719	0.710233
	H467	H	0.266688	0.737589	0.714847
	O468	O	0.290923	0.716763	0.294056
	H469	H	0.279310	0.731919	0.302636
	H470	H	0.341777	0.723667	0.282736
	O471	O	0.796764	0.814040	0.160390
	H472	H	0.822984	0.809800	0.155152
	H473	H	0.784182	0.802651	0.141342
	O474	O	1.425302	0.736859	0.543494
	H475	H	1.407368	0.741769	0.542637
	H476	H	1.420501	0.732768	0.557333
	O477	O	0.592412	0.325909	0.555695
	H478	H	0.577188	0.322704	0.542388
	H479	H	0.614042	0.318312	0.544255
