data_Molecule from HDF5

_cell_length_a		16.310557
_cell_length_b		16.200708
_cell_length_c		16.186267
_cell_angle_alpha	89.987871
_cell_angle_beta	89.952663
_cell_angle_gamma	89.947016
_symmetry_space_group_name_H-M	'P 1'
_symmetry_Int_Tables_number		1

loop_
	_symmetry_equiv_pos_as_xyz
	x,y,z

loop_
	_atom_site_label
	_atom_site_type_symbol
	_atom_site_fract_x
	_atom_site_fract_y
	_atom_site_fract_z
	H0	H	0.402239	0.835657	0.713123
	H1	H	0.596870	0.164765	0.712997
	H2	H	0.597147	0.835498	0.287447
	H3	H	0.402796	0.165119	0.288456
	H4	H	0.713985	0.401978	0.835233
	H5	H	0.711767	0.596882	0.165052
	H6	H	0.285536	0.599271	0.835819
	H7	H	0.285988	0.401092	0.164801
	H8	H	0.836771	0.714734	0.400336
	H9	H	0.163036	0.714066	0.597885
	H10	H	0.835850	0.286786	0.597666
	H11	H	0.164158	0.285611	0.401751
	H12	H	0.836438	0.402944	0.713861
	H13	H	0.163200	0.597438	0.713998
	H14	H	0.835869	0.596055	0.286880
	H15	H	0.164391	0.401594	0.285251
	H16	H	0.403952	0.712605	0.834310
	H17	H	0.596009	0.712695	0.165088
	H18	H	0.597749	0.286750	0.834961
	H19	H	0.402363	0.286091	0.164836
	H20	H	0.714040	0.836170	0.400651
	H21	H	0.714005	0.163961	0.598769
	H22	H	0.286129	0.835793	0.598156
	H23	H	0.285368	0.163946	0.401534
	H24	H	0.904415	0.334679	0.212337
	H25	H	0.097295	0.664478	0.213403
	H26	H	0.096401	0.334340	0.787757
	H27	H	0.902377	0.664728	0.786955
	H28	H	0.214693	0.901240	0.335907
	H29	H	0.213284	0.098640	0.664881
	H30	H	0.785314	0.099458	0.335537
	H31	H	0.785133	0.900478	0.663772
	H32	H	0.336997	0.214991	0.902225
	H33	H	0.664012	0.213345	0.097453
	H34	H	0.335890	0.787018	0.097783
	H35	H	0.663359	0.786843	0.902821
	H36	H	0.335933	0.903520	0.213752
	H37	H	0.663535	0.098223	0.214287
	H38	H	0.336040	0.098714	0.787049
	H39	H	0.663233	0.901961	0.786368
	H40	H	0.903576	0.212529	0.334587
	H41	H	0.096500	0.212168	0.665073
	H42	H	0.096334	0.787703	0.335129
	H43	H	0.901988	0.786427	0.664371
	H44	H	0.215938	0.335906	0.900399
	H45	H	0.213600	0.664849	0.098774
	H46	H	0.785860	0.335531	0.098830
	H47	H	0.786163	0.664135	0.901437
	H48	H	0.403419	0.118400	0.591290
	H49	H	0.588857	0.884066	0.592201
	H50	H	0.587885	0.119239	0.396503
	H51	H	0.409970	0.884591	0.412599
	H52	H	0.593348	0.407633	0.117112
	H53	H	0.598215	0.594741	0.880417
	H54	H	0.410157	0.587713	0.114954
	H55	H	0.397270	0.412335	0.880808
	H56	H	0.116935	0.581438	0.395927
	H57	H	0.883225	0.592296	0.594263
	H58	H	0.117075	0.399484	0.588040
	H59	H	0.881773	0.404764	0.400477
	H60	H	0.114275	0.412878	0.591408
	H61	H	0.881891	0.595176	0.593891
	H62	H	0.121979	0.607711	0.401269
	H63	H	0.883195	0.401496	0.409921
	H64	H	0.409761	0.599626	0.118162
	H65	H	0.594199	0.590144	0.883457
	H66	H	0.593245	0.406257	0.117928
	H67	H	0.415181	0.415194	0.887538
	H68	H	0.587385	0.113725	0.416746
	H69	H	0.595800	0.882359	0.588772
	H70	H	0.403975	0.118464	0.595769
	H71	H	0.399909	0.880401	0.407329
	H72	H	0.907474	0.615023	0.083856
	H73	H	0.099465	0.381148	0.092102
	H74	H	0.086454	0.615636	0.907605
	H75	H	0.906160	0.383390	0.910409
	H76	H	0.086037	0.896920	0.619037
	H77	H	0.092246	0.094121	0.382456
	H78	H	0.897258	0.092603	0.620267
	H79	H	0.901998	0.916978	0.383496
	H80	H	0.618539	0.097191	0.905011
	H81	H	0.380944	0.091312	0.104000
	H82	H	0.613683	0.909837	0.088908
	H83	H	0.382770	0.907258	0.906850
	H84	H	0.618234	0.909718	0.101952
	H85	H	0.381915	0.103813	0.089890
	H86	H	0.615667	0.092394	0.909768
	H87	H	0.381918	0.906496	0.906127
	H88	H	0.909157	0.085064	0.614255
	H89	H	0.096048	0.092581	0.381377
	H90	H	0.105472	0.906203	0.621351
	H91	H	0.916102	0.905625	0.384880
	H92	H	0.098746	0.616461	0.913736
	H93	H	0.090880	0.382500	0.096933
	H94	H	0.897980	0.620687	0.095949
	H95	H	0.903832	0.380570	0.905905
	H96	H	0.407446	0.117708	0.593074
	H97	H	0.594325	0.881262	0.596416
	H98	H	0.604833	0.121464	0.408621
	H99	H	0.410424	0.881291	0.401464
	H100	H	0.594255	0.406666	0.117999
	H101	H	0.591793	0.596510	0.881600
	H102	H	0.399281	0.592577	0.119465
	H103	H	0.409673	0.398178	0.880250
	H104	H	0.111904	0.592202	0.421093
	H105	H	0.883415	0.593746	0.592247
	H106	H	0.118953	0.404509	0.600867
	H107	H	0.886110	0.410844	0.408135
	H108	H	0.913672	0.617423	0.099384
	H109	H	0.091977	0.384350	0.087471
	H110	H	0.097119	0.620215	0.900551
	H111	H	0.909312	0.382810	0.905402
	H112	H	0.089402	0.917608	0.613749
	H113	H	0.092888	0.090597	0.383630
	H114	H	0.910740	0.100281	0.618154
	H115	H	0.900573	0.899931	0.377769
	H116	H	0.617604	0.089944	0.903393
	H117	H	0.387000	0.086414	0.087699
	H118	H	0.619631	0.897412	0.093846
	H119	H	0.381993	0.905841	0.907177
	C120	C	0.377649	0.008973	0.621553
	C121	C	0.620937	0.991353	0.621204
	C122	C	0.621436	0.009136	0.378734
	C123	C	0.378256	0.990932	0.378861
	C124	C	0.622086	0.378622	0.008520
	C125	C	0.621903	0.621758	0.991190
	C126	C	0.378837	0.621759	0.008623
	C127	C	0.378980	0.379012	0.991818
	C128	C	0.008699	0.621905	0.377618
	C129	C	0.991259	0.621688	0.621858
	C130	C	0.008600	0.377834	0.621568
	C131	C	0.992135	0.377618	0.377884
	C132	C	0.878772	0.508486	0.121358
	C133	C	0.121603	0.491445	0.120852
	C134	C	0.122099	0.508437	0.878639
	C135	C	0.878521	0.491215	0.878532
	C136	C	0.121696	0.878600	0.509063
	C137	C	0.121161	0.120711	0.491377
	C138	C	0.878162	0.121082	0.508440
	C139	C	0.877810	0.878487	0.491005
	C140	C	0.508776	0.121965	0.878047
	C141	C	0.491591	0.121977	0.122013
	C142	C	0.508529	0.878041	0.122539
	C143	C	0.490811	0.878304	0.878591
	C144	C	0.381323	0.884755	0.675737
	C145	C	0.617562	0.115411	0.675792
	C146	C	0.617995	0.884734	0.324696
	C147	C	0.381575	0.115596	0.325012
	C148	C	0.676531	0.381195	0.884425
	C149	C	0.675298	0.618179	0.115640
	C150	C	0.324052	0.619278	0.884437
	C151	C	0.323797	0.380970	0.115608
	C152	C	0.885465	0.676562	0.380254
	C153	C	0.114255	0.676238	0.618908
	C154	C	0.885067	0.323808	0.618866
	C155	C	0.115448	0.323418	0.381203
	C156	C	0.885173	0.381540	0.676447
	C157	C	0.114489	0.618127	0.676375
	C158	C	0.885005	0.617865	0.323855
	C159	C	0.115407	0.381069	0.323187
	C160	C	0.382495	0.675719	0.883776
	C161	C	0.617531	0.675579	0.115682
	C162	C	0.618649	0.324236	0.884260
	C163	C	0.381698	0.323851	0.115623
	C164	C	0.676355	0.885146	0.380687
	C165	C	0.675655	0.115114	0.618921
	C166	C	0.323958	0.884768	0.618627
	C167	C	0.323134	0.114939	0.381193
	C168	C	0.882708	0.383882	0.175351
	C169	C	0.118157	0.615456	0.175912
	C170	C	0.118397	0.384007	0.824724
	C171	C	0.881825	0.615438	0.824393
	C172	C	0.176559	0.881047	0.384992
	C173	C	0.175725	0.118847	0.615691
	C174	C	0.823536	0.119244	0.384376
	C175	C	0.822972	0.880468	0.614782
	C176	C	0.385737	0.177421	0.881404
	C177	C	0.615242	0.175900	0.118465
	C178	C	0.384961	0.824054	0.118949
	C179	C	0.614376	0.824082	0.881880
	C180	C	0.384931	0.882102	0.176312
	C181	C	0.614842	0.118584	0.176398
	C182	C	0.385323	0.119572	0.824192
	C183	C	0.614311	0.881406	0.824095
	C184	C	0.881817	0.175735	0.384180
	C185	C	0.117436	0.175272	0.615775
	C186	C	0.117959	0.824591	0.384535
	C187	C	0.881223	0.823957	0.614968
	C188	C	0.177452	0.384580	0.880844
	C189	C	0.175950	0.615604	0.119133
	C190	C	0.823936	0.384461	0.119171
	C191	C	0.824286	0.615330	0.881519
	C192	C	0.398607	0.095764	0.599851
	C193	C	0.599323	0.904758	0.598877
	C194	C	0.599796	0.095557	0.400707
	C195	C	0.400230	0.904573	0.400667
	C196	C	0.599999	0.400519	0.095369
	C197	C	0.601098	0.600260	0.904211
	C198	C	0.400004	0.599839	0.095284
	C199	C	0.401014	0.401804	0.905226
	C200	C	0.094733	0.600174	0.399544
	C201	C	0.905059	0.599988	0.599980
	C202	C	0.094743	0.399418	0.599831
	C203	C	0.905706	0.399469	0.399637
	C204	C	0.899945	0.595031	0.099609
	C205	C	0.100629	0.405072	0.098715
	C206	C	0.100454	0.594988	0.900766
	C207	C	0.900202	0.404639	0.900707
	C208	C	0.099943	0.900385	0.595771
	C209	C	0.099970	0.098782	0.404927
	C210	C	0.899250	0.099033	0.595145
	C211	C	0.899630	0.900970	0.404130
	C212	C	0.594817	0.099785	0.899629
	C213	C	0.405571	0.100239	0.100246
	C214	C	0.594785	0.899288	0.101319
	C215	C	0.404646	0.899984	0.900261
	Zn216	Zn	0.499387	0.000044	0.749507
	Zn217	Zn	0.500192	0.000275	0.251156
	Zn218	Zn	0.750200	0.499814	-0.000338
	Zn219	Zn	0.250309	0.500339	0.000196
	Zn220	Zn	-0.000139	0.750658	0.499572
	Zn221	Zn	0.000166	0.249079	0.500055
	Zn222	Zn	0.000069	0.499841	0.750609
	Zn223	Zn	0.000495	0.500088	0.249289
	Zn224	Zn	0.499838	0.749689	-0.000166
	Zn225	Zn	0.500506	0.250441	0.000116
	Zn226	Zn	0.749628	0.000094	0.499599
	Zn227	Zn	0.249875	-0.000013	0.500330
	N228	N	0.414098	0.962949	0.677578
	N229	N	0.584138	0.037620	0.677026
	N230	N	0.584383	0.962611	0.323667
	N231	N	0.415037	0.037513	0.323184
	N232	N	0.678745	0.414210	0.962743
	N233	N	0.678110	0.585394	0.037281
	N234	N	0.321699	0.586316	0.962754
	N235	N	0.321905	0.414591	0.037595
	N236	N	0.963159	0.678916	0.413170
	N237	N	0.036649	0.678514	0.585739
	N238	N	0.962683	0.321473	0.585581
	N239	N	0.037750	0.321330	0.414394
	N240	N	0.962878	0.414469	0.678260
	N241	N	0.036886	0.585096	0.678176
	N242	N	0.962751	0.584807	0.321831
	N243	N	0.037737	0.414137	0.321177
	N244	N	0.415844	0.677166	0.961818
	N245	N	0.585085	0.677755	0.037339
	N246	N	0.585499	0.322534	0.962499
	N247	N	0.415298	0.322734	0.037589
	N248	N	0.678702	0.963497	0.413582
	N249	N	0.677876	0.036977	0.585514
	N250	N	0.321572	0.962968	0.585670
	N251	N	0.321030	0.036698	0.413980
	N252	N	0.916212	0.461977	0.176841
	N253	N	0.085087	0.537470	0.177041
	N254	N	0.084739	0.461782	0.823235
	N255	N	0.914761	0.537226	0.822596
	N256	N	0.178999	0.913775	0.463422
	N257	N	0.178229	0.085713	0.537451
	N258	N	0.821226	0.085800	0.462543
	N259	N	0.820880	0.913869	0.536670
	N260	N	0.463496	0.178871	0.914300
	N261	N	0.537724	0.177944	0.085231
	N262	N	0.462686	0.821588	0.086024
	N263	N	0.536681	0.822038	0.914746
	N264	N	0.462674	0.914889	0.178760
	N265	N	0.537010	0.086034	0.178866
	N266	N	0.462597	0.085802	0.821887
	N267	N	0.536452	0.914401	0.821779
	N268	N	0.915297	0.176695	0.462104
	N269	N	0.084216	0.176488	0.537787
	N270	N	0.084468	0.823117	0.462567
	N271	N	0.914753	0.822927	0.536947
	N272	N	0.180110	0.463080	0.913395
	N273	N	0.178373	0.537562	0.085594
	N274	N	0.821266	0.462733	0.086571
	N275	N	0.822062	0.537120	0.914350
