data_Molecule from HDF5

_cell_length_a		16.328686
_cell_length_b		16.227414
_cell_length_c		16.306047
_cell_angle_alpha	90.208146
_cell_angle_beta	89.709432
_cell_angle_gamma	90.245657
_symmetry_space_group_name_H-M	'P 1'
_symmetry_Int_Tables_number		1

loop_
	_symmetry_equiv_pos_as_xyz
	x,y,z

loop_
	_atom_site_label
	_atom_site_type_symbol
	_atom_site_fract_x
	_atom_site_fract_y
	_atom_site_fract_z
	H0	H	0.390822	0.828377	0.724516
	H1	H	0.597410	0.151702	0.730390
	H2	H	0.595760	0.827876	0.291173
	H3	H	0.392916	0.153332	0.292150
	H4	H	0.715018	0.386874	0.847541
	H5	H	0.711633	0.595180	0.170161
	H6	H	0.276174	0.596981	0.848234
	H7	H	0.274260	0.389306	0.169126
	H8	H	0.831298	0.706379	0.409984
	H9	H	0.154177	0.711912	0.610928
	H10	H	0.832308	0.273818	0.609731
	H11	H	0.156243	0.275132	0.406140
	H12	H	0.833393	0.387123	0.729019
	H13	H	0.153405	0.600474	0.729303
	H14	H	0.832548	0.593446	0.291920
	H15	H	0.156354	0.390098	0.289640
	H16	H	0.395549	0.705617	0.846538
	H17	H	0.597437	0.710852	0.169029
	H18	H	0.596920	0.271781	0.846238
	H19	H	0.390608	0.273594	0.169685
	H20	H	0.710635	0.827846	0.407785
	H21	H	0.711947	0.153547	0.613369
	H22	H	0.272813	0.830441	0.613688
	H23	H	0.277414	0.154191	0.408769
	H24	H	0.893418	0.328037	0.224132
	H25	H	0.096166	0.654650	0.225249
	H26	H	0.096451	0.329380	0.788666
	H27	H	0.892616	0.653583	0.792541
	H28	H	0.213238	0.888465	0.348508
	H29	H	0.210107	0.095138	0.672035
	H30	H	0.776688	0.093680	0.347333
	H31	H	0.774617	0.890472	0.671248
	H32	H	0.332127	0.206751	0.906565
	H33	H	0.655676	0.208261	0.107837
	H34	H	0.332060	0.771565	0.109761
	H35	H	0.656628	0.775401	0.908075
	H36	H	0.332204	0.886150	0.227848
	H37	H	0.655612	0.092106	0.224334
	H38	H	0.331464	0.091063	0.793030
	H39	H	0.654415	0.887242	0.789259
	H40	H	0.896390	0.205990	0.345968
	H41	H	0.095927	0.211003	0.670281
	H42	H	0.092647	0.776436	0.346531
	H43	H	0.890613	0.774872	0.671387
	H44	H	0.212754	0.329344	0.903040
	H45	H	0.211171	0.654377	0.109328
	H46	H	0.775965	0.328625	0.110416
	H47	H	0.778040	0.654038	0.908087
	H48	H	0.407592	0.103996	0.595230
	H49	H	0.593571	0.873738	0.594572
	H50	H	0.582168	0.104307	0.422336
	H51	H	0.401611	0.871953	0.409684
	H52	H	0.576717	0.407699	0.118979
	H53	H	0.591663	0.579556	0.891544
	H54	H	0.410841	0.578032	0.120762
	H55	H	0.402836	0.399468	0.892436
	H56	H	0.109570	0.580122	0.410458
	H57	H	0.877481	0.577358	0.606617
	H58	H	0.107114	0.405976	0.597569
	H59	H	0.885095	0.404671	0.431108
	H60	H	0.110289	0.402297	0.603234
	H61	H	0.877104	0.587659	0.600858
	H62	H	0.111342	0.590859	0.415998
	H63	H	0.878020	0.409626	0.404230
	H64	H	0.402510	0.588764	0.127016
	H65	H	0.583939	0.577643	0.895507
	H66	H	0.581664	0.390882	0.124710
	H67	H	0.404008	0.400512	0.892435
	H68	H	0.591552	0.107496	0.419659
	H69	H	0.581169	0.873538	0.609166
	H70	H	0.395933	0.108658	0.600565
	H71	H	0.411314	0.878753	0.422115
	H72	H	0.909424	0.603643	0.096590
	H73	H	0.080810	0.377582	0.096563
	H74	H	0.083497	0.607072	0.917896
	H75	H	0.904617	0.378024	0.924647
	H76	H	0.085702	0.906205	0.624332
	H77	H	0.082223	0.078869	0.396330
	H78	H	0.904626	0.091021	0.626421
	H79	H	0.907419	0.893400	0.393564
	H80	H	0.606680	0.076265	0.919915
	H81	H	0.380894	0.072048	0.102286
	H82	H	0.606975	0.905527	0.098990
	H83	H	0.382019	0.904501	0.922703
	H84	H	0.611057	0.898719	0.106302
	H85	H	0.374750	0.085984	0.108932
	H86	H	0.609768	0.080537	0.914249
	H87	H	0.375765	0.897722	0.906930
	H88	H	0.892809	0.080526	0.626922
	H89	H	0.086104	0.088155	0.392196
	H90	H	0.078561	0.901296	0.624122
	H91	H	0.893869	0.896927	0.390797
	H92	H	0.087064	0.606476	0.920065
	H93	H	0.088590	0.375493	0.096852
	H94	H	0.895460	0.608768	0.097189
	H95	H	0.901295	0.374363	0.917713
	H96	H	0.407375	0.108071	0.607871
	H97	H	0.575994	0.880304	0.592118
	H98	H	0.583365	0.107732	0.412669
	H99	H	0.394725	0.875091	0.425639
	H100	H	0.593771	0.404898	0.124680
	H101	H	0.585419	0.585468	0.892053
	H102	H	0.395704	0.574877	0.124054
	H103	H	0.403802	0.397971	0.893075
	H104	H	0.106853	0.581118	0.422114
	H105	H	0.880985	0.578762	0.595042
	H106	H	0.109369	0.398937	0.596490
	H107	H	0.874032	0.383750	0.415060
	H108	H	0.903618	0.610009	0.109660
	H109	H	0.083625	0.374403	0.102900
	H110	H	0.087500	0.607407	0.916768
	H111	H	0.909311	0.377660	0.916973
	H112	H	0.085849	0.898551	0.627384
	H113	H	0.092531	0.079293	0.392977
	H114	H	0.907049	0.076409	0.620600
	H115	H	0.902788	0.906511	0.396200
	H116	H	0.608333	0.083447	0.921408
	H117	H	0.378821	0.085183	0.092440
	H118	H	0.608943	0.895297	0.095534
	H119	H	0.376372	0.887106	0.921637
	C120	C	0.371880	0.000330	0.631858
	C121	C	0.614987	0.982636	0.630743
	C122	C	0.615724	-0.001019	0.387854
	C123	C	0.372604	0.982591	0.388821
	C124	C	0.615537	0.369249	0.016198
	C125	C	0.616877	0.612451	0.999783
	C126	C	0.373855	0.611367	0.017217
	C127	C	0.371588	0.369008	0.998986
	C128	C	0.002343	0.613637	0.386964
	C129	C	0.985107	0.613600	0.631104
	C130	C	0.002527	0.370495	0.630485
	C131	C	0.986010	0.369593	0.386416
	C132	C	0.872129	0.499923	0.131167
	C133	C	0.115163	0.483273	0.129017
	C134	C	0.116702	0.500337	0.886040
	C135	C	0.874219	0.483243	0.888774
	C136	C	0.114240	0.870845	0.518116
	C137	C	0.116337	0.113227	0.500811
	C138	C	0.872436	0.112553	0.517412
	C139	C	0.871382	0.869561	0.500914
	C140	C	0.501799	0.110546	0.887764
	C141	C	0.485243	0.112175	0.130807
	C142	C	0.502059	0.868382	0.130500
	C143	C	0.484954	0.867357	0.886725
	C144	C	0.371251	0.877527	0.687662
	C145	C	0.616007	0.103694	0.690389
	C146	C	0.615131	0.876563	0.330181
	C147	C	0.373402	0.104817	0.331090
	C148	C	0.675123	0.368147	0.895407
	C149	C	0.673529	0.613745	0.121641
	C150	C	0.315942	0.613941	0.896123
	C151	C	0.312969	0.369355	0.120685
	C152	C	0.880098	0.668849	0.389391
	C153	C	0.105769	0.673013	0.630470
	C154	C	0.880998	0.312386	0.630143
	C155	C	0.107783	0.313142	0.386480
	C156	C	0.881442	0.368868	0.689312
	C157	C	0.105495	0.616896	0.689216
	C158	C	0.880800	0.612942	0.330431
	C159	C	0.107792	0.370540	0.328528
	C160	C	0.375149	0.668450	0.895348
	C161	C	0.616698	0.671376	0.120985
	C162	C	0.616247	0.310891	0.894709
	C163	C	0.371152	0.312253	0.121195
	C164	C	0.672384	0.876579	0.388070
	C165	C	0.673279	0.104526	0.632047
	C166	C	0.312805	0.878512	0.632150
	C167	C	0.315989	0.105301	0.389265
	C168	C	0.873455	0.377003	0.186678
	C169	C	0.115028	0.605827	0.186619
	C170	C	0.116257	0.378313	0.827464
	C171	C	0.873888	0.605418	0.831595
	C172	C	0.173146	0.869915	0.396732
	C173	C	0.172125	0.113985	0.623081
	C174	C	0.815735	0.112385	0.395708
	C175	C	0.813980	0.871121	0.623051
	C176	C	0.380398	0.168049	0.887611
	C177	C	0.606994	0.169723	0.128496
	C178	C	0.380509	0.810454	0.129562
	C179	C	0.607437	0.812475	0.887698
	C180	C	0.380573	0.867680	0.188366
	C181	C	0.606904	0.112283	0.186870
	C182	C	0.380175	0.110233	0.831111
	C183	C	0.606280	0.868260	0.828515
	C184	C	0.875408	0.168033	0.394731
	C185	C	0.115059	0.171499	0.622389
	C186	C	0.113418	0.813965	0.395702
	C187	C	0.871467	0.813409	0.623051
	C188	C	0.174117	0.378214	0.884752
	C189	C	0.172282	0.605744	0.128825
	C190	C	0.814834	0.377535	0.130012
	C191	C	0.816585	0.605438	0.888828
	C192	C	0.396515	0.084938	0.608039
	C193	C	0.590680	0.897813	0.605894
	C194	C	0.592738	0.084362	0.411361
	C195	C	0.395807	0.897604	0.412310
	C196	C	0.591020	0.393822	0.100910
	C197	C	0.593669	0.587892	0.914866
	C198	C	0.396556	0.587373	0.101901
	C199	C	0.396185	0.392329	0.914598
	C200	C	0.087260	0.590694	0.409494
	C201	C	0.900479	0.588342	0.607631
	C202	C	0.087006	0.395274	0.606098
	C203	C	0.901152	0.392669	0.410001
	C204	C	0.895911	0.585416	0.107984
	C205	C	0.091422	0.398063	0.105526
	C206	C	0.092883	0.584875	0.911048
	C207	C	0.898136	0.398665	0.912772
	C208	C	0.090284	0.894999	0.603104
	C209	C	0.093615	0.089107	0.415781
	C210	C	0.894945	0.089640	0.602600
	C211	C	0.894560	0.892164	0.415684
	C212	C	0.586521	0.087022	0.911549
	C213	C	0.400017	0.088152	0.107760
	C214	C	0.586980	0.892825	0.107102
	C215	C	0.399964	0.889887	0.910270
	Zn216	Zn	0.492757	-0.009994	0.759220
	Zn217	Zn	0.493634	-0.009879	0.259731
	Zn218	Zn	0.744942	0.491922	0.008757
	Zn219	Zn	0.244321	0.491788	0.007917
	Zn220	Zn	-0.007021	0.741523	0.509528
	Zn221	Zn	-0.005285	0.241241	0.508670
	Zn222	Zn	-0.006011	0.492291	0.759400
	Zn223	Zn	-0.005589	0.491537	0.258496
	Zn224	Zn	0.494538	0.739042	0.008023
	Zn225	Zn	0.493062	0.240158	0.007647
	Zn226	Zn	0.743692	-0.008622	0.509045
	Zn227	Zn	0.243793	-0.008128	0.510575
	N228	N	0.407308	0.954187	0.687784
	N229	N	0.580425	0.026744	0.689660
	N230	N	0.580751	0.953818	0.329836
	N231	N	0.407723	0.027607	0.330692
	N232	N	0.674708	0.403745	0.972058
	N233	N	0.673750	0.577750	0.045143
	N234	N	0.314943	0.579114	0.972813
	N235	N	0.312953	0.403753	0.043817
	N236	N	0.956787	0.669573	0.423727
	N237	N	0.029676	0.671062	0.595103
	N238	N	0.957325	0.313267	0.594289
	N239	N	0.031026	0.312342	0.421622
	N240	N	0.958094	0.404487	0.689401
	N241	N	0.029225	0.580739	0.689638
	N242	N	0.957712	0.579126	0.328763
	N243	N	0.030910	0.404788	0.328276
	N244	N	0.410468	0.667091	0.971685
	N245	N	0.582080	0.670469	0.044367
	N246	N	0.579885	0.311618	0.970884
	N247	N	0.406750	0.311721	0.044592
	N248	N	0.672847	0.953674	0.423184
	N249	N	0.672438	0.028255	0.595508
	N250	N	0.313003	0.955860	0.598039
	N251	N	0.315136	0.028216	0.424295
	N252	N	0.908088	0.454377	0.187666
	N253	N	0.079966	0.528702	0.186810
	N254	N	0.081347	0.455198	0.828195
	N255	N	0.908854	0.528544	0.831474
	N256	N	0.174080	0.904067	0.474047
	N257	N	0.172900	0.078226	0.546531
	N258	N	0.813722	0.078856	0.473046
	N259	N	0.813734	0.905055	0.546048
	N260	N	0.457049	0.168372	0.922236
	N261	N	0.529967	0.169939	0.094530
	N262	N	0.457277	0.810582	0.094345
	N263	N	0.531060	0.811812	0.923291
	N264	N	0.457290	0.902605	0.189066
	N265	N	0.530004	0.077482	0.188389
	N266	N	0.456819	0.075322	0.831051
	N267	N	0.529037	0.901410	0.827756
	N268	N	0.909866	0.168385	0.471541
	N269	N	0.081140	0.171103	0.545384
	N270	N	0.077799	0.814220	0.472404
	N271	N	0.906432	0.812215	0.546115
	N272	N	0.174957	0.455300	0.920178
	N273	N	0.172619	0.528520	0.093700
	N274	N	0.814163	0.454975	0.096140
	N275	N	0.816609	0.528525	0.923889
	O276	O	0.306403	0.582604	0.406274
	H277	H	0.299786	0.582138	0.426404
	H278	H	0.301560	0.600917	0.415753
	O279	O	0.047319	0.092863	0.002566
	H280	H	0.037562	0.082623	-0.023388
	H281	H	0.047043	0.095972	-0.004224
	O282	O	1.110579	-0.045181	1.184423
	H283	H	1.115528	-0.043714	1.188686
	H284	H	1.123067	-0.052296	1.182363
	O285	O	0.605417	0.488982	0.460811
	H286	H	0.577883	0.492233	0.458492
	H287	H	0.612465	0.482488	0.455889
	O288	O	0.852614	0.967419	0.940751
	H289	H	0.852352	0.970661	0.927215
	H290	H	0.849890	0.977377	0.944584
	O291	O	0.080700	0.893023	-0.071063
	H292	H	0.082464	0.919420	-0.073549
	H293	H	0.100778	0.893654	-0.057557
	O294	O	0.810743	0.887152	0.876060
	H295	H	0.812210	0.883852	0.874001
	H296	H	0.810875	0.884547	0.869627
	O297	O	0.389214	0.672030	0.513060
	H298	H	0.396447	0.652470	0.515619
	H299	H	0.387612	0.669471	0.511738
	O300	O	0.557277	0.355492	0.383567
	H301	H	0.552838	0.345341	0.400862
	H302	H	0.564958	0.354154	0.375065
	O303	O	0.518080	0.506443	0.378211
	H304	H	0.516469	0.513118	0.384495
	H305	H	0.513094	0.509262	0.365308
	O306	O	0.645716	0.565647	0.599033
	H307	H	0.646712	0.562145	0.590911
	H308	H	0.653829	0.577617	0.593723
	O309	O	0.304816	0.633730	0.456745
	H310	H	0.308894	0.644362	0.466008
	H311	H	0.312931	0.641405	0.475059
	O312	O	-0.098574	-0.174355	-0.003195
	H313	H	-0.087347	-0.188811	0.004156
	H314	H	-0.097381	-0.174828	-0.009045
	O315	O	1.036092	1.058161	-0.045488
	H316	H	1.043727	1.041684	-0.045990
	H317	H	1.029900	1.055392	-0.059181
	O318	O	-0.496154	1.604038	0.323622
	H319	H	-0.487619	1.596272	0.308880
	H320	H	-0.515650	1.603167	0.319379
	O321	O	0.423334	0.544268	0.313941
	H322	H	0.427877	0.563342	0.300604
	H323	H	0.420854	0.532367	0.331433
	O324	O	0.011873	1.108789	0.020660
	H325	H	0.007269	1.112991	0.033545
	H326	H	0.011869	1.107559	0.032971
	O327	O	0.406944	0.546487	0.604312
	H328	H	0.412372	0.544315	0.590138
	H329	H	0.396117	0.549324	0.618407
	O330	O	0.572378	-0.549677	1.476906
	H331	H	0.589615	-0.558856	1.473233
	H332	H	0.557865	-0.537430	1.470283
	O333	O	0.053751	-0.102139	1.017189
	H334	H	0.037407	-0.101003	1.023897
	H335	H	0.057371	-0.082781	1.012911
	O336	O	0.678569	0.424648	0.459149
	H337	H	0.686407	0.409537	0.448815
	H338	H	0.675050	0.410111	0.453659
	O339	O	0.517445	-0.550356	0.325934
	H340	H	0.530619	-0.550870	0.333363
	H341	H	0.515648	-0.567985	0.327640
	O342	O	0.065734	0.013150	-0.120647
	H343	H	0.048325	0.025690	-0.116672
	H344	H	0.066123	0.013930	-0.127126
	O345	O	0.835158	0.059293	1.010413
	H346	H	0.843909	0.062491	1.003274
	H347	H	0.827908	0.058997	1.010874
	O348	O	1.090716	0.930041	-0.014217
	H349	H	1.093126	0.937438	-0.008982
	H350	H	1.095750	0.948360	-0.018033
	O351	O	0.574977	0.315731	0.529568
	H352	H	0.576439	0.327004	0.539284
	H353	H	0.574070	0.310292	0.521987
	O354	O	0.989567	0.081143	1.095643
	H355	H	0.995261	0.084783	1.098629
	H356	H	0.999406	0.078913	1.106054
	O357	O	0.312257	0.348599	0.553217
	H358	H	0.301440	0.344633	0.556981
	H359	H	0.321388	0.366770	0.551043
	O360	O	0.463914	0.340088	0.595036
	H361	H	0.470994	0.333020	0.609101
	H362	H	0.460358	0.353408	0.584966
	O363	O	0.059818	1.023920	0.889202
	H364	H	0.057972	1.013811	0.908767
	H365	H	0.045470	1.020895	0.890517
	O366	O	0.385001	0.470311	0.684246
	H367	H	0.389312	0.444882	0.679221
	H368	H	0.374526	0.472145	0.705211
	O369	O	0.045523	1.050824	-0.036647
	H370	H	0.051570	1.040729	-0.043263
	H371	H	0.036206	1.045930	-0.036520
	O372	O	1.523457	0.398399	0.644467
	H373	H	1.526115	0.405130	0.651591
	H374	H	1.531187	0.403796	0.657835
	O375	O	1.071903	0.035800	0.117117
	H376	H	1.071536	0.020776	0.118339
	H377	H	1.071780	0.042848	0.113042
	O378	O	1.481846	1.485719	-0.365052
	H379	H	1.481541	1.485146	-0.363579
	H380	H	1.475620	1.497244	-0.359940
	O381	O	0.867903	-0.102610	0.143625
	H382	H	0.871192	-0.090613	0.156136
	H383	H	0.887520	-0.098209	0.143122
	O384	O	0.927738	0.924916	0.113394
	H385	H	0.929926	0.920823	0.119250
	H386	H	0.926245	0.928473	0.127329
	O387	O	0.056832	0.145219	0.161237
	H388	H	0.068857	0.153894	0.166899
	H389	H	0.052821	0.154077	0.152611
	O390	O	-0.071066	0.935106	0.044261
	H391	H	-0.073288	0.928131	0.054904
	H392	H	-0.070240	0.935195	0.046492
	O393	O	1.038328	0.858242	0.946691
	H394	H	1.051110	0.859327	0.950508
	H395	H	1.044366	0.848657	0.941673
	O396	O	0.546406	0.547697	0.676923
	H397	H	0.554307	0.550478	0.683265
	H398	H	0.542287	0.564678	0.693867
	O399	O	-0.031744	1.040961	0.860307
	H400	H	-0.036641	1.043274	0.842491
	H401	H	-0.038873	1.039121	0.859971
	O402	O	0.676204	0.555879	0.532983
	H403	H	0.677593	0.561643	0.518787
	H404	H	0.686737	0.537079	0.519137
	O405	O	0.881323	1.051481	0.049933
	H406	H	0.887494	1.042802	0.062859
	H407	H	0.875902	1.052940	0.035357
	O408	O	0.547112	1.670726	0.600550
	H409	H	0.562561	1.678476	0.600438
	H410	H	0.561286	1.667232	0.588765
	O411	O	0.310043	-0.626404	0.610011
	H412	H	0.295196	-0.636517	0.590806
	H413	H	0.330205	-0.628229	0.612091
	O414	O	0.475154	0.516995	0.405469
	H415	H	0.468593	0.526440	0.411575
	H416	H	0.488551	0.510288	0.415887
	O417	O	0.614638	0.314447	0.422218
	H418	H	0.612180	0.309630	0.426012
	H419	H	0.603452	0.311098	0.409612
