data_Molecule from HDF5

_cell_length_a		16.520849
_cell_length_b		16.717203
_cell_length_c		16.475622
_cell_angle_alpha	89.968813
_cell_angle_beta	89.983181
_cell_angle_gamma	90.160340
_symmetry_space_group_name_H-M	'P 1'
_symmetry_Int_Tables_number		1

loop_
	_symmetry_equiv_pos_as_xyz
	x,y,z

loop_
	_atom_site_label
	_atom_site_type_symbol
	_atom_site_fract_x
	_atom_site_fract_y
	_atom_site_fract_z
	H0	H	0.380947	0.838731	0.710350
	H1	H	0.590626	0.150224	0.709997
	H2	H	0.591681	0.839399	0.265018
	H3	H	0.381131	0.149510	0.268850
	H4	H	0.705122	0.389866	0.831141
	H5	H	0.703186	0.595712	0.146899
	H6	H	0.263970	0.597240	0.832410
	H7	H	0.265974	0.389224	0.147532
	H8	H	0.828063	0.712612	0.385817
	H9	H	0.139748	0.717809	0.599527
	H10	H	0.828756	0.270881	0.594287
	H11	H	0.143189	0.274774	0.385770
	H12	H	0.827981	0.386728	0.709773
	H13	H	0.141165	0.598410	0.712171
	H14	H	0.826001	0.593384	0.273266
	H15	H	0.143560	0.392487	0.271103
	H16	H	0.377933	0.715770	0.833342
	H17	H	0.590992	0.714959	0.145894
	H18	H	0.592227	0.270872	0.832454
	H19	H	0.378299	0.269700	0.145167
	H20	H	0.709654	0.840051	0.380540
	H21	H	0.708661	0.148846	0.594471
	H22	H	0.262203	0.839547	0.594873
	H23	H	0.263428	0.148798	0.383923
	H24	H	0.881658	0.336493	0.208376
	H25	H	0.089804	0.648568	0.210821
	H26	H	0.090888	0.337435	0.767338
	H27	H	0.877936	0.646297	0.764520
	H28	H	0.204670	0.889308	0.332585
	H29	H	0.205035	0.097131	0.647385
	H30	H	0.764849	0.097728	0.332900
	H31	H	0.761926	0.885715	0.646136
	H32	H	0.328936	0.216682	0.880078
	H33	H	0.639479	0.217195	0.096888
	H34	H	0.330238	0.769066	0.098324
	H35	H	0.640232	0.771176	0.881249
	H36	H	0.328046	0.889064	0.210335
	H37	H	0.640980	0.099349	0.211217
	H38	H	0.328679	0.098335	0.766450
	H39	H	0.642361	0.890580	0.769364
	H40	H	0.879931	0.213869	0.332689
	H41	H	0.094003	0.216610	0.645370
	H42	H	0.092017	0.770283	0.334560
	H43	H	0.873404	0.765988	0.644297
	H44	H	0.205536	0.336584	0.886203
	H45	H	0.208517	0.647659	0.096408
	H46	H	0.764335	0.338034	0.091687
	H47	H	0.759938	0.646284	0.879188
	H48	H	0.400564	0.102412	0.575299
	H49	H	0.575495	0.885374	0.572316
	H50	H	0.569970	0.104370	0.395289
	H51	H	0.393897	0.881977	0.398500
	H52	H	0.568290	0.400408	0.100806
	H53	H	0.573189	0.582218	0.876603
	H54	H	0.402590	0.581667	0.099697
	H55	H	0.398233	0.400468	0.876421
	H56	H	0.099780	0.587097	0.398452
	H57	H	0.872752	0.580560	0.580467
	H58	H	0.096045	0.405435	0.575257
	H59	H	0.871689	0.402346	0.397258
	H60	H	0.098525	0.404574	0.580981
	H61	H	0.874381	0.582758	0.571363
	H62	H	0.096450	0.584474	0.405688
	H63	H	0.870467	0.397693	0.400011
	H64	H	0.396797	0.586340	0.103679
	H65	H	0.570061	0.581383	0.876937
	H66	H	0.577507	0.401979	0.103584
	H67	H	0.392613	0.403455	0.875315
	H68	H	0.571659	0.100396	0.408084
	H69	H	0.579339	0.880353	0.582398
	H70	H	0.392949	0.105343	0.574579
	H71	H	0.396425	0.883227	0.399121
	H72	H	0.889972	0.606166	0.078818
	H73	H	0.073817	0.382094	0.079309
	H74	H	0.068866	0.599569	0.906297
	H75	H	0.892061	0.380065	0.899101
	H76	H	0.076400	0.905730	0.602825
	H77	H	0.076641	0.089201	0.373983
	H78	H	0.899921	0.085944	0.602376
	H79	H	0.896901	0.904096	0.378765
	H80	H	0.597440	0.082128	0.897381
	H81	H	0.372181	0.086043	0.074393
	H82	H	0.596227	0.910770	0.080655
	H83	H	0.369890	0.900800	0.895614
	H84	H	0.599784	0.899094	0.078241
	H85	H	0.374513	0.078182	0.073931
	H86	H	0.597810	0.087848	0.902247
	H87	H	0.373285	0.900036	0.906323
	H88	H	0.894424	0.081236	0.603625
	H89	H	0.078417	0.078952	0.377071
	H90	H	0.068810	0.906499	0.601331
	H91	H	0.899397	0.905179	0.379545
	H92	H	0.080875	0.604672	0.904045
	H93	H	0.075904	0.381260	0.079125
	H94	H	0.894409	0.606932	0.085657
	H95	H	0.899942	0.383158	0.899700
	H96	H	0.397124	0.106149	0.581969
	H97	H	0.568317	0.884369	0.581757
	H98	H	0.581730	0.105856	0.401445
	H99	H	0.394325	0.882441	0.401591
	H100	H	0.572418	0.409113	0.099604
	H101	H	0.570835	0.584284	0.876295
	H102	H	0.394485	0.578233	0.101670
	H103	H	0.397454	0.406579	0.877916
	H104	H	0.097079	0.579230	0.399329
	H105	H	0.876812	0.574598	0.574933
	H106	H	0.098780	0.399994	0.576842
	H107	H	0.873137	0.402037	0.402625
	H108	H	0.897748	0.603673	0.078527
	H109	H	0.075031	0.381202	0.081597
	H110	H	0.071697	0.604167	0.894124
	H111	H	0.895108	0.383955	0.905970
	H112	H	0.071803	0.899541	0.603937
	H113	H	0.068306	0.083491	0.378558
	H114	H	0.900598	0.078960	0.600005
	H115	H	0.899546	0.902818	0.378233
	H116	H	0.595279	0.080908	0.904271
	H117	H	0.371548	0.081115	0.081119
	H118	H	0.594152	0.905890	0.069163
	H119	H	0.373854	0.909505	0.900901
	C120	C	0.364075	0.002394	0.610284
	C121	C	0.607439	0.985869	0.611333
	C122	C	0.607204	0.001775	0.367661
	C123	C	0.363116	0.985303	0.367721
	C124	C	0.605610	0.372071	-0.002725
	C125	C	0.604870	0.614664	0.980220
	C126	C	0.364475	0.614395	-0.001980
	C127	C	0.363719	0.371347	0.980494
	C128	C	-0.006517	0.614069	0.369441
	C129	C	0.976595	0.613397	0.610416
	C130	C	-0.006085	0.370950	0.610554
	C131	C	0.976224	0.371099	0.368488
	C132	C	0.862664	0.502175	0.111774
	C133	C	0.106935	0.484490	0.111839
	C134	C	0.106298	0.500436	0.868903
	C135	C	0.862919	0.484361	0.867837
	C136	C	0.105133	0.872332	0.498728
	C137	C	0.107003	0.115466	0.480436
	C138	C	0.865524	0.114045	0.498384
	C139	C	0.863936	0.871065	0.481741
	C140	C	0.493293	0.115443	0.867809
	C141	C	0.476081	0.114636	0.109854
	C142	C	0.493717	0.872343	0.110132
	C143	C	0.475931	0.872075	0.867987
	C144	C	0.362017	0.885512	0.670351
	C145	C	0.609510	0.102976	0.670757
	C146	C	0.610075	0.885982	0.305684
	C147	C	0.362235	0.102535	0.308236
	C148	C	0.665595	0.370968	0.878741
	C149	C	0.664254	0.615055	0.099288
	C150	C	0.304323	0.615708	0.879563
	C151	C	0.305087	0.370140	0.099730
	C152	C	0.875033	0.672550	0.367696
	C153	C	0.093201	0.676108	0.616014
	C154	C	0.876061	0.310552	0.613073
	C155	C	0.095909	0.314063	0.367219
	C156	C	0.875438	0.368862	0.670089
	C157	C	0.094011	0.616836	0.672198
	C158	C	0.874111	0.613256	0.311596
	C159	C	0.096059	0.372379	0.310225
	C160	C	0.360673	0.674863	0.880072
	C161	C	0.608354	0.674262	0.098659
	C162	C	0.609282	0.311836	0.879322
	C163	C	0.360806	0.310798	0.098570
	C164	C	0.668522	0.886028	0.363371
	C165	C	0.668167	0.102542	0.613223
	C166	C	0.303189	0.885703	0.613001
	C167	C	0.303653	0.102223	0.365723
	C168	C	0.862005	0.384224	0.169574
	C169	C	0.108695	0.601620	0.171315
	C170	C	0.108729	0.383848	0.808272
	C171	C	0.859653	0.599889	0.805104
	C172	C	0.165074	0.870688	0.380247
	C173	C	0.166407	0.116614	0.599395
	C174	C	0.804942	0.115972	0.379981
	C175	C	0.801831	0.867588	0.598833
	C176	C	0.375799	0.175870	0.863314
	C177	C	0.593210	0.176055	0.114072
	C178	C	0.376530	0.810590	0.114945
	C179	C	0.593479	0.812007	0.864291
	C180	C	0.375393	0.870213	0.170540
	C181	C	0.593823	0.117386	0.170783
	C182	C	0.375593	0.117088	0.806772
	C183	C	0.594416	0.871240	0.808204
	C184	C	0.862060	0.173958	0.380025
	C185	C	0.110785	0.175751	0.598492
	C186	C	0.108847	0.811594	0.380981
	C187	C	0.857617	0.808250	0.598196
	C188	C	0.165874	0.383372	0.867355
	C189	C	0.167845	0.601110	0.114358
	C190	C	0.803562	0.384799	0.111672
	C191	C	0.801081	0.600145	0.862485
	C192	C	0.389727	0.083759	0.584555
	C193	C	0.581801	0.904506	0.585942
	C194	C	0.581825	0.082582	0.394262
	C195	C	0.387823	0.903820	0.392582
	C196	C	0.580086	0.396639	0.079939
	C197	C	0.578856	0.589800	0.897901
	C198	C	0.390458	0.589375	0.080180
	C199	C	0.388836	0.396195	0.898028
	C200	C	0.076193	0.590455	0.394032
	C201	C	0.895662	0.586852	0.583258
	C202	C	0.076381	0.396054	0.585061
	C203	C	0.893497	0.393940	0.392778
	C204	C	0.887111	0.584252	0.087784
	C205	C	0.081983	0.402908	0.087080
	C206	C	0.080985	0.581583	0.894230
	C207	C	0.888391	0.403474	0.894294
	C208	C	0.079619	0.896953	0.581284
	C209	C	0.081596	0.090855	0.397949
	C210	C	0.891164	0.089190	0.580549
	C211	C	0.891095	0.896739	0.400085
	C212	C	0.575413	0.090812	0.893891
	C213	C	0.393976	0.088997	0.083841
	C214	C	0.575266	0.897836	0.083775
	C215	C	0.393603	0.896485	0.893670
	Zn216	Zn	0.485279	-0.006083	0.740078
	Zn217	Zn	0.485060	-0.006188	0.238453
	Zn218	Zn	0.733892	0.493840	-0.011383
	Zn219	Zn	0.236199	0.492893	-0.009961
	Zn220	Zn	-0.015044	0.742948	0.490295
	Zn221	Zn	-0.013889	0.242746	0.489453
	Zn222	Zn	-0.015025	0.491780	0.739133
	Zn223	Zn	-0.015062	0.492911	0.241020
	Zn224	Zn	0.484896	0.743856	-0.010752
	Zn225	Zn	0.484639	0.243556	-0.011197
	Zn226	Zn	0.736858	-0.007078	0.489820
	Zn227	Zn	0.233665	-0.006269	0.489788
	N228	N	0.398772	0.959150	0.668927
	N229	N	0.572553	0.029114	0.669720
	N230	N	0.572477	0.958960	0.308287
	N231	N	0.398359	0.028696	0.309206
	N232	N	0.663261	0.407877	0.953146
	N233	N	0.662473	0.578739	0.024489
	N234	N	0.306618	0.578518	0.953840
	N235	N	0.306781	0.407007	0.025306
	N236	N	0.950195	0.673092	0.402987
	N237	N	0.019215	0.674102	0.578346
	N238	N	0.950804	0.311901	0.576535
	N239	N	0.020412	0.312717	0.402172
	N240	N	0.949962	0.405631	0.668730
	N241	N	0.020613	0.578183	0.668773
	N242	N	0.949054	0.577692	0.312288
	N243	N	0.020707	0.407067	0.310678
	N244	N	0.397153	0.674327	0.954852
	N245	N	0.572434	0.674392	0.023452
	N246	N	0.572777	0.312372	0.954202
	N247	N	0.396550	0.311389	0.023298
	N248	N	0.666776	0.958993	0.401433
	N249	N	0.667024	0.028606	0.576991
	N250	N	0.304296	0.959560	0.576294
	N251	N	0.303837	0.028345	0.401961
	N252	N	0.897653	0.458469	0.170094
	N253	N	0.071495	0.528081	0.169978
	N254	N	0.072712	0.457757	0.808902
	N255	N	0.897367	0.526818	0.808274
	N256	N	0.162807	0.907838	0.454495
	N257	N	0.164377	0.079916	0.524896
	N258	N	0.806873	0.079312	0.454580
	N259	N	0.805701	0.906222	0.525322
	N260	N	0.450097	0.174909	0.900634
	N261	N	0.518804	0.174540	0.076992
	N262	N	0.451090	0.811763	0.078009
	N263	N	0.518659	0.812232	0.900635
	N264	N	0.449276	0.907731	0.168058
	N265	N	0.519805	0.079873	0.168333
	N266	N	0.449684	0.080206	0.809522
	N267	N	0.520210	0.908142	0.810535
	N268	N	0.898829	0.173175	0.454724
	N269	N	0.074646	0.175299	0.523417
	N270	N	0.072494	0.812120	0.455981
	N271	N	0.895551	0.810290	0.524272
	N272	N	0.164837	0.457108	0.904079
	N273	N	0.167009	0.527104	0.078281
	N274	N	0.803349	0.459496	0.076914
	N275	N	0.802824	0.527132	0.900501
	O276	O	-0.236077	1.060614	0.037496
	H277	H	-0.236319	1.071243	0.040443
	H278	H	-0.230039	1.042246	0.017479
	O279	O	0.336209	0.359740	0.361121
	H280	H	0.321928	0.342764	0.352540
	H281	H	0.342325	0.363478	0.357693
	O282	O	1.193097	-0.222816	0.966767
	H283	H	1.189584	-0.207293	0.941332
	H284	H	1.215913	-0.245967	0.949885
	O285	O	0.773701	0.775709	0.201086
	H286	H	0.771399	0.796558	0.179969
	H287	H	0.750883	0.749518	0.229860
	O288	O	0.454355	0.707336	0.279415
	H289	H	0.455883	0.724981	0.258819
	H290	H	0.470306	0.698139	0.292142
	O291	O	0.272156	0.274396	0.515142
	H292	H	0.267673	0.259728	0.512329
	H293	H	0.260959	0.270265	0.542562
	O294	O	1.067568	-0.061445	1.205197
	H295	H	1.053288	-0.060241	1.192595
	H296	H	1.041077	-0.063993	1.206445
	O297	O	0.522565	0.715658	0.596504
	H298	H	0.510297	0.716028	0.589350
	H299	H	0.518986	0.717169	0.605356
	O300	O	-0.212978	0.196333	0.789939
	H301	H	-0.217407	0.177483	0.780483
	H302	H	-0.191486	0.195765	0.807734
	O303	O	0.286172	0.292525	0.690905
	H304	H	0.270328	0.270372	0.699479
	H305	H	0.291050	0.333618	0.699569
	O306	O	0.769782	0.031650	0.769939
	H307	H	0.764918	0.017607	0.757811
	H308	H	0.764068	0.039577	0.762780
	O309	O	0.267140	0.458080	0.706232
	H310	H	0.266176	0.474774	0.671714
	H311	H	0.234999	0.459957	0.733399
	O312	O	0.496501	0.701687	0.474015
	H313	H	0.512536	0.698369	0.493103
	H314	H	0.498828	0.702273	0.479874
	O315	O	0.317899	1.686951	0.659188
	H316	H	0.318303	1.652057	0.646278
	H317	H	0.346226	1.692237	0.639908
	O318	O	0.505354	0.604961	0.461732
	H319	H	0.521903	0.596575	0.454158
	H320	H	0.510542	0.602218	0.469246
	O321	O	0.207454	0.772108	0.767480
	H322	H	0.239145	0.747536	0.735502
	H323	H	0.198035	0.800837	0.761411
	O324	O	0.764178	0.947604	-0.075521
	H325	H	0.768672	0.947858	-0.078731
	H326	H	0.772720	0.947554	-0.088598
	O327	O	-0.234318	-0.234717	1.015164
	H328	H	-0.257615	-0.254759	1.021053
	H329	H	-0.231226	-0.224501	1.024272
	O330	O	0.467929	0.324460	0.482558
	H331	H	0.457291	0.321132	0.479470
	H332	H	0.464306	0.322642	0.492195
	O333	O	-0.217720	0.195272	1.062617
	H334	H	-0.219681	0.176654	1.058841
	H335	H	-0.217246	0.200198	1.062568
	O336	O	0.684372	0.286719	0.290623
	H337	H	0.691024	0.270685	0.293055
	H338	H	0.665740	0.297292	0.300467
	O339	O	0.993513	0.225366	1.004260
	H340	H	0.986776	0.223499	1.010170
	H341	H	1.016292	0.228540	1.004577
	O342	O	0.170541	-0.197291	0.170315
	H343	H	0.159381	-0.185926	0.145826
	H344	H	0.141626	-0.180591	0.166496
	O345	O	-0.040880	0.974467	1.106312
	H346	H	-0.041005	0.977168	1.112717
	H347	H	-0.049660	0.970935	1.095617
	O348	O	0.707343	0.451688	0.268758
	H349	H	0.718104	0.461616	0.240342
	H350	H	0.711802	0.418080	0.261666
	O351	O	0.955458	0.776065	0.212007
	H352	H	0.950781	0.758641	0.210760
	H353	H	0.942700	0.765196	0.219024
	O354	O	0.021747	0.218380	1.212188
	H355	H	0.017643	0.229963	1.222715
	H356	H	0.038904	0.231670	1.218929
	O357	O	0.978686	0.997446	0.089977
	H358	H	0.966929	0.992880	0.079640
	H359	H	0.979647	0.994751	0.089258
	O360	O	0.266564	0.541939	0.566174
	H361	H	0.281293	0.550290	0.546971
	H362	H	0.260523	0.534005	0.542845
	O363	O	-0.156321	0.130883	-0.101528
	H364	H	-0.138548	0.134987	-0.110837
	H365	H	-0.186722	0.148889	-0.097641
	O366	O	0.276409	0.517478	0.276806
	H367	H	0.273767	0.548703	0.276364
	H368	H	0.259070	0.539102	0.260663
	O369	O	1.114723	0.204726	-0.145741
	H370	H	1.115327	0.192983	-0.134668
	H371	H	1.098196	0.185778	-0.147906
	O372	O	0.924506	1.015377	-0.040992
	H373	H	0.932213	1.023240	-0.043338
	H374	H	0.926631	1.017677	-0.026651
	O375	O	0.914057	0.129267	0.143194
	H376	H	0.937382	0.132179	0.142440
	H377	H	0.906591	0.126694	0.144985
	O378	O	0.483204	0.615296	0.703670
	H379	H	0.493803	0.602282	0.697243
	H380	H	0.485997	0.623100	0.711240
	O381	O	0.043602	0.768606	1.054256
	H382	H	0.023746	0.769457	1.050581
	H383	H	0.076354	0.762049	1.036284
	O384	O	1.055171	0.063259	0.911577
	H385	H	1.067488	0.061991	0.916258
	H386	H	1.051859	0.059964	0.900723
	O387	O	0.929381	0.754706	-0.060447
	H388	H	0.906883	0.747935	-0.061093
	H389	H	0.938265	0.756817	-0.065992
	O390	O	0.700037	0.280876	0.463003
	H391	H	0.718843	0.262010	0.466985
	H392	H	0.688756	0.290931	0.456172
	O393	O	0.436318	0.481818	0.285739
	H394	H	0.431641	0.477829	0.286484
	H395	H	0.423695	0.471992	0.298406
	O396	O	0.458492	1.458939	1.524949
	H397	H	0.457416	1.458412	1.520120
	H398	H	0.451503	1.456790	1.533997
	O399	O	0.047253	-0.225408	0.786884
	H400	H	0.054105	-0.239414	0.771562
	H401	H	0.057359	-0.223600	0.784890
	O402	O	0.469846	0.347301	0.561771
	H403	H	0.448743	0.350404	0.573088
	H404	H	0.468225	0.343011	0.574923
	O405	O	0.938013	-0.089508	0.769263
	H406	H	0.952766	-0.102384	0.764698
	H407	H	0.923337	-0.098471	0.768591
	O408	O	-0.225300	-0.029384	0.198653
	H409	H	-0.218828	-0.034952	0.203951
	H410	H	-0.230692	-0.027688	0.207879
	O411	O	0.494678	0.467694	0.706518
	H412	H	0.482247	0.460610	0.705326
	H413	H	0.492059	0.470890	0.708268
	O414	O	0.824786	0.008245	1.100585
	H415	H	0.811084	0.015711	1.100624
	H416	H	0.814988	-0.003448	1.110816
	O417	O	0.667734	0.681638	0.304822
	H418	H	0.655133	0.663466	0.312544
	H419	H	0.647941	0.675180	0.329663
	O420	O	0.690403	0.699396	0.698041
	H421	H	0.685537	0.697736	0.692098
	H422	H	0.683489	0.682637	0.677518
	O423	O	0.186898	0.197732	1.191051
	H424	H	0.172561	0.211288	1.183286
	H425	H	0.194646	0.150122	1.189884
	O426	O	0.559462	0.666288	0.525563
	H427	H	0.563931	0.660875	0.517848
	H428	H	0.566000	0.670840	0.511411
	O429	O	1.054164	1.071997	0.814857
	H430	H	1.041243	1.061508	0.821121
	H431	H	1.044583	1.097285	0.816066
	O432	O	0.283863	0.411550	0.397279
	H433	H	0.281917	0.414665	0.389948
	H434	H	0.292961	0.409447	0.394171
	O435	O	0.213738	1.054240	-0.071904
	H436	H	0.215287	1.044676	-0.069199
	H437	H	0.211573	1.047163	-0.062912
	O438	O	0.201260	0.213029	0.022811
	H439	H	0.202323	0.210263	0.039903
	H440	H	0.229953	0.226812	0.019026
	O441	O	0.267296	0.707949	0.460110
	H442	H	0.269786	0.710719	0.452025
	H443	H	0.251408	0.721940	0.442439
	O444	O	0.371570	0.460761	0.421175
	H445	H	0.363554	0.453776	0.429831
	H446	H	0.371111	0.456876	0.399739
	O447	O	-0.198286	0.806292	0.810821
	H448	H	-0.211331	0.794038	0.798850
	H449	H	-0.184104	0.813450	0.826841
	O450	O	0.279428	0.694530	1.288066
	H451	H	0.313811	0.702760	1.297693
	H452	H	0.262517	0.721057	1.259256
	O453	O	0.580961	0.291019	0.575784
	H454	H	0.584720	0.282279	0.580948
	H455	H	0.575902	0.282043	0.557632
	O456	O	-0.035811	0.210771	0.772799
	H457	H	-0.028202	0.208433	0.789434
	H458	H	-0.054100	0.230956	0.748129
	O459	O	1.201800	1.036302	0.202241
	H460	H	1.202169	1.024711	0.216036
	H461	H	1.197385	1.017068	0.214030
	O462	O	0.670122	0.654507	0.506451
	H463	H	0.697712	0.668038	0.510337
	H464	H	0.667458	0.630799	0.514112
	O465	O	0.696489	-0.551103	-0.340336
	H466	H	0.677962	-0.557133	-0.335209
	H467	H	0.703890	-0.550208	-0.322892
	O468	O	0.697271	0.465172	0.461373
	H469	H	0.682210	0.441746	0.468832
	H470	H	0.710442	0.469194	0.426249
	O471	O	0.491060	0.320994	0.705673
	H472	H	0.495954	0.314105	0.698418
	H473	H	0.466359	0.314444	0.717879
	O474	O	0.524479	0.500378	0.274163
	H475	H	0.523508	0.491035	0.277295
	H476	H	0.511830	0.499496	0.264729
	O477	O	0.516303	0.277151	1.281387
	H478	H	0.515034	0.272926	1.272023
	H479	H	0.512689	0.269246	1.285972
	O480	O	0.691459	0.545539	0.616394
	H481	H	0.687561	0.526463	0.604243
	H482	H	0.699813	0.534331	0.652245
	O483	O	1.213910	0.940151	1.040869
	H484	H	1.222248	0.930390	1.049325
	H485	H	1.199093	0.940344	1.037975
	O486	O	1.198175	-0.039749	0.776977
	H487	H	1.206637	-0.033425	0.761693
	H488	H	1.193188	-0.043140	0.789319
	O489	O	1.057745	0.920122	-0.098454
	H490	H	1.058475	0.917473	-0.097180
	H491	H	1.038607	0.913191	-0.090286
