data_Molecule from HDF5

_cell_length_a		16.662672
_cell_length_b		16.553250
_cell_length_c		16.673980
_cell_angle_alpha	89.806129
_cell_angle_beta	89.931209
_cell_angle_gamma	90.003673
_symmetry_space_group_name_H-M	'P 1'
_symmetry_Int_Tables_number		1

loop_
	_symmetry_equiv_pos_as_xyz
	x,y,z

loop_
	_atom_site_label
	_atom_site_type_symbol
	_atom_site_fract_x
	_atom_site_fract_y
	_atom_site_fract_z
	H0	H	0.398160	0.836798	0.705850
	H1	H	0.606352	0.150214	0.704292
	H2	H	0.606863	0.835850	0.266555
	H3	H	0.395564	0.146539	0.261724
	H4	H	0.724977	0.386969	0.830930
	H5	H	0.724716	0.598257	0.140279
	H6	H	0.281054	0.600135	0.831250
	H7	H	0.278991	0.386010	0.138587
	H8	H	0.846442	0.714972	0.380068
	H9	H	0.157941	0.713027	0.588162
	H10	H	0.846792	0.273327	0.589739
	H11	H	0.159893	0.275886	0.383699
	H12	H	0.848190	0.386730	0.708081
	H13	H	0.156521	0.599713	0.707663
	H14	H	0.846126	0.598418	0.264687
	H15	H	0.160039	0.393655	0.267430
	H16	H	0.398396	0.715477	0.830593
	H17	H	0.609525	0.714846	0.139254
	H18	H	0.605475	0.273471	0.829287
	H19	H	0.396072	0.270367	0.139214
	H20	H	0.723824	0.837143	0.380834
	H21	H	0.721750	0.150015	0.587964
	H22	H	0.280910	0.837420	0.591704
	H23	H	0.281060	0.148268	0.378858
	H24	H	0.897833	0.336252	0.207140
	H25	H	0.107492	0.649851	0.205683
	H26	H	0.112277	0.340470	0.760849
	H27	H	0.896741	0.648631	0.763603
	H28	H	0.225889	0.886763	0.332269
	H29	H	0.223214	0.098369	0.640467
	H30	H	0.780521	0.098842	0.330519
	H31	H	0.780072	0.887225	0.640160
	H32	H	0.346599	0.213761	0.882186
	H33	H	0.656178	0.215541	0.093081
	H34	H	0.350494	0.766379	0.093911
	H35	H	0.659142	0.773543	0.881894
	H36	H	0.351325	0.879879	0.212521
	H37	H	0.656055	0.099772	0.209812
	H38	H	0.347255	0.100079	0.763381
	H39	H	0.657536	0.889093	0.763906
	H40	H	0.899986	0.211869	0.328580
	H41	H	0.106718	0.214655	0.640098
	H42	H	0.108115	0.772100	0.330475
	H43	H	0.895600	0.770173	0.639533
	H44	H	0.227590	0.340094	0.875865
	H45	H	0.225718	0.648794	0.091405
	H46	H	0.784875	0.334656	0.089502
	H47	H	0.782079	0.649056	0.881833
	H48	H	0.411781	0.106846	0.577820
	H49	H	0.591199	0.880349	0.574417
	H50	H	0.591419	0.106646	0.392068
	H51	H	0.411347	0.881858	0.403944
	H52	H	0.596131	0.406996	0.096485
	H53	H	0.591497	0.580684	0.875337
	H54	H	0.416919	0.577064	0.094098
	H55	H	0.413057	0.398614	0.872153
	H56	H	0.114419	0.584783	0.392329
	H57	H	0.891444	0.578959	0.577722
	H58	H	0.113024	0.405115	0.574213
	H59	H	0.893078	0.406148	0.397900
	H60	H	0.114118	0.404626	0.573751
	H61	H	0.890621	0.583899	0.572474
	H62	H	0.113377	0.584139	0.398460
	H63	H	0.889952	0.404300	0.389828
	H64	H	0.415738	0.582615	0.096864
	H65	H	0.592445	0.582384	0.874200
	H66	H	0.587761	0.403070	0.095161
	H67	H	0.409275	0.410147	0.873461
	H68	H	0.586349	0.102752	0.396517
	H69	H	0.591210	0.880908	0.575334
	H70	H	0.417018	0.103439	0.573519
	H71	H	0.412431	0.879214	0.394934
	H72	H	0.914601	0.603161	0.071473
	H73	H	0.087581	0.383140	0.073823
	H74	H	0.086810	0.602745	0.897861
	H75	H	0.910201	0.379006	0.893362
	H76	H	0.090458	0.904183	0.595816
	H77	H	0.092723	0.085069	0.373327
	H78	H	0.912789	0.077694	0.594635
	H79	H	0.916255	0.903764	0.375252
	H80	H	0.613185	0.079414	0.894163
	H81	H	0.395362	0.074500	0.069101
	H82	H	0.614746	0.906066	0.079008
	H83	H	0.391330	0.901474	0.898523
	H84	H	0.613675	0.901102	0.071661
	H85	H	0.391381	0.076474	0.079051
	H86	H	0.615582	0.083528	0.892155
	H87	H	0.392092	0.906850	0.895955
	H88	H	0.915201	0.087575	0.597019
	H89	H	0.094400	0.082043	0.374049
	H90	H	0.090329	0.905552	0.595322
	H91	H	0.910660	0.903443	0.372524
	H92	H	0.090688	0.604394	0.900367
	H93	H	0.094615	0.381421	0.072449
	H94	H	0.908279	0.606321	0.073471
	H95	H	0.920635	0.382332	0.894565
	H96	H	0.410028	0.104743	0.570989
	H97	H	0.591087	0.881800	0.575051
	H98	H	0.593526	0.104556	0.399736
	H99	H	0.419549	0.882987	0.399518
	H100	H	0.594734	0.397897	0.099552
	H101	H	0.593874	0.580459	0.874285
	H102	H	0.411336	0.578475	0.097257
	H103	H	0.420531	0.406875	0.876782
	H104	H	0.111534	0.579636	0.394881
	H105	H	0.892643	0.577368	0.570547
	H106	H	0.112651	0.404849	0.573736
	H107	H	0.889704	0.398101	0.396246
	H108	H	0.914014	0.605982	0.078732
	H109	H	0.091688	0.380445	0.079036
	H110	H	0.090835	0.605402	0.895921
	H111	H	0.913502	0.382649	0.903440
	H112	H	0.088977	0.904798	0.595901
	H113	H	0.090768	0.082223	0.374839
	H114	H	0.905473	0.083981	0.598851
	H115	H	0.912807	0.908639	0.374954
	H116	H	0.612727	0.084059	0.897129
	H117	H	0.391344	0.084190	0.071833
	H118	H	0.610679	0.909161	0.072037
	H119	H	0.389709	0.902067	0.892070
	C120	C	0.380764	0.001962	0.606642
	C121	C	0.622820	0.984590	0.606429
	C122	C	0.622880	0.001227	0.364773
	C123	C	0.380913	0.983590	0.364926
	C124	C	0.624395	0.371028	-0.005759
	C125	C	0.624774	0.613533	0.976887
	C126	C	0.382523	0.613671	-0.006079
	C127	C	0.381088	0.371922	0.976343
	C128	C	0.010214	0.614937	0.363533
	C129	C	0.993658	0.613556	0.605819
	C130	C	0.010901	0.372080	0.606643
	C131	C	0.994669	0.372786	0.364041
	C132	C	0.881380	0.501108	0.106665
	C133	C	0.123829	0.484991	0.106439
	C134	C	0.123587	0.502273	0.864153
	C135	C	0.882325	0.484387	0.864988
	C136	C	0.123227	0.871973	0.494098
	C137	C	0.124346	0.115085	0.476805
	C138	C	0.880571	0.114839	0.493596
	C139	C	0.880640	0.872195	0.476588
	C140	C	0.510809	0.114780	0.863260
	C141	C	0.494139	0.112820	0.106894
	C142	C	0.511703	0.870712	0.107389
	C143	C	0.493974	0.872020	0.864069
	C144	C	0.378958	0.884070	0.666516
	C145	C	0.624477	0.103065	0.664647
	C146	C	0.625095	0.883106	0.306015
	C147	C	0.377720	0.100088	0.302616
	C148	C	0.684380	0.368994	0.877277
	C149	C	0.684460	0.615922	0.093585
	C150	C	0.321525	0.617962	0.877649
	C151	C	0.319562	0.368199	0.092329
	C152	C	0.893027	0.674684	0.361847
	C153	C	0.110958	0.673536	0.607235
	C154	C	0.893974	0.312573	0.608597
	C155	C	0.113035	0.315368	0.364305
	C156	C	0.894569	0.368808	0.667583
	C157	C	0.110302	0.617319	0.666669
	C158	C	0.892946	0.616683	0.304442
	C159	C	0.112859	0.373584	0.306484
	C160	C	0.379865	0.675100	0.877309
	C161	C	0.627173	0.674073	0.093211
	C162	C	0.625171	0.312520	0.876587
	C163	C	0.377936	0.310925	0.092736
	C164	C	0.683263	0.883803	0.362856
	C165	C	0.681916	0.102882	0.606882
	C166	C	0.320906	0.884299	0.609452
	C167	C	0.320771	0.100911	0.360909
	C168	C	0.880216	0.383252	0.166695
	C169	C	0.126192	0.602775	0.165890
	C170	C	0.128998	0.386745	0.801756
	C171	C	0.878998	0.602000	0.804248
	C172	C	0.184787	0.868945	0.378185
	C173	C	0.183638	0.117053	0.593706
	C174	C	0.821206	0.116624	0.376736
	C175	C	0.820501	0.869259	0.593357
	C176	C	0.393558	0.174471	0.862483
	C177	C	0.610015	0.174711	0.110571
	C178	C	0.396641	0.807451	0.111645
	C179	C	0.611813	0.813153	0.862691
	C180	C	0.396883	0.864123	0.170386
	C181	C	0.609753	0.117365	0.168956
	C182	C	0.393851	0.117690	0.803778
	C183	C	0.611102	0.870476	0.804133
	C184	C	0.880390	0.173142	0.375856
	C185	C	0.125461	0.174513	0.593676
	C186	C	0.126226	0.812022	0.377309
	C187	C	0.877817	0.810869	0.593149
	C188	C	0.186319	0.386521	0.859437
	C189	C	0.184708	0.602189	0.109072
	C190	C	0.823569	0.382468	0.108267
	C191	C	0.822170	0.602233	0.862875
	C192	C	0.405805	0.083774	0.581349
	C193	C	0.598138	0.902465	0.582099
	C194	C	0.597675	0.083303	0.389087
	C195	C	0.407046	0.902431	0.391742
	C196	C	0.599932	0.395645	0.075874
	C197	C	0.599568	0.588269	0.895806
	C198	C	0.407616	0.587265	0.074927
	C199	C	0.406924	0.397694	0.895309
	C200	C	0.091971	0.590010	0.388371
	C201	C	0.912715	0.587488	0.580721
	C202	C	0.092236	0.397642	0.581108
	C203	C	0.912304	0.396162	0.387887
	C204	C	0.905453	0.583756	0.081667
	C205	C	0.098588	0.403129	0.082132
	C206	C	0.096975	0.583227	0.890759
	C207	C	0.907636	0.402647	0.890075
	C208	C	0.097139	0.897570	0.574755
	C209	C	0.099698	0.090187	0.395398
	C210	C	0.904441	0.090274	0.575607
	C211	C	0.906181	0.897861	0.395395
	C212	C	0.592566	0.089584	0.887632
	C213	C	0.413735	0.086054	0.080741
	C214	C	0.592126	0.897934	0.081393
	C215	C	0.412214	0.896391	0.888762
	Zn216	Zn	0.501950	-0.006353	0.734896
	Zn217	Zn	0.502382	-0.008499	0.236294
	Zn218	Zn	0.753421	0.492330	-0.014526
	Zn219	Zn	0.252416	0.493779	-0.015254
	Zn220	Zn	0.001982	0.743050	0.485065
	Zn221	Zn	0.002489	0.243162	0.485054
	Zn222	Zn	0.002561	0.492951	0.735561
	Zn223	Zn	0.002208	0.494144	0.234583
	Zn224	Zn	0.503830	0.742752	-0.014528
	Zn225	Zn	0.502121	0.242505	-0.014480
	Zn226	Zn	0.751480	-0.006706	0.485105
	Zn227	Zn	0.252460	-0.006947	0.485964
	N228	N	0.415364	0.958388	0.665154
	N229	N	0.588532	0.028498	0.664597
	N230	N	0.588130	0.957184	0.307092
	N231	N	0.414462	0.025964	0.304889
	N232	N	0.684246	0.404378	0.951608
	N233	N	0.683084	0.578869	0.020202
	N234	N	0.322741	0.580785	0.951331
	N235	N	0.321031	0.405144	0.018833
	N236	N	0.967132	0.673992	0.397596
	N237	N	0.037580	0.671403	0.570113
	N238	N	0.967515	0.314158	0.571567
	N239	N	0.038288	0.314329	0.398963
	N240	N	0.968460	0.405416	0.666498
	N241	N	0.036269	0.580977	0.666244
	N242	N	0.966941	0.580290	0.305145
	N243	N	0.038081	0.408131	0.305819
	N244	N	0.416935	0.672829	0.950748
	N245	N	0.590362	0.672520	0.019701
	N246	N	0.588728	0.313232	0.950422
	N247	N	0.415266	0.312808	0.019481
	N248	N	0.682224	0.958423	0.398508
	N249	N	0.681240	0.028226	0.571308
	N250	N	0.321610	0.958805	0.573214
	N251	N	0.322512	0.027270	0.398934
	N252	N	0.915234	0.458344	0.166018
	N253	N	0.088861	0.528881	0.164469
	N254	N	0.090359	0.459688	0.804689
	N255	N	0.915419	0.527667	0.805185
	N256	N	0.183158	0.905487	0.451834
	N257	N	0.183243	0.080934	0.519916
	N258	N	0.821091	0.081151	0.451079
	N259	N	0.821816	0.906350	0.519758
	N260	N	0.467361	0.172859	0.898813
	N261	N	0.536921	0.172332	0.072707
	N262	N	0.469182	0.811390	0.073167
	N263	N	0.537771	0.813465	0.898856
	N264	N	0.469527	0.902790	0.167911
	N265	N	0.536659	0.079438	0.166932
	N266	N	0.467782	0.081267	0.804159
	N267	N	0.536671	0.906020	0.804426
	N268	N	0.916317	0.172558	0.449805
	N269	N	0.089690	0.173795	0.519731
	N270	N	0.088737	0.813548	0.450464
	N271	N	0.914425	0.812383	0.519313
	N272	N	0.182860	0.459376	0.897987
	N273	N	0.183526	0.527881	0.072779
	N274	N	0.823899	0.457068	0.071761
	N275	N	0.823766	0.528022	0.899688
	O276	O	-0.036852	0.776364	0.203281
	H277	H	-0.035966	0.785308	0.211874
	H278	H	-0.028765	0.770710	0.217439
	O279	O	0.210269	0.786810	0.193656
	H280	H	0.202242	0.803801	0.185225
	H281	H	0.216683	0.787931	0.191677
	O282	O	0.901586	0.100878	1.185357
	H283	H	0.920804	0.094426	1.184990
	H284	H	0.915094	0.096628	1.170083
	O285	O	0.557328	0.410078	0.508929
	H286	H	0.538757	0.425555	0.507161
	H287	H	0.567823	0.397218	0.494897
	O288	O	0.555134	0.331952	0.607346
	H289	H	0.553240	0.342534	0.626861
	H290	H	0.557925	0.331891	0.604066
	O291	O	0.520638	0.668616	0.695801
	H292	H	0.517442	0.666075	0.693887
	H293	H	0.518526	0.685725	0.710059
	O294	O	1.083039	-0.090880	1.211217
	H295	H	1.098862	-0.075179	1.204135
	H296	H	1.100626	-0.096372	1.213052
	O297	O	0.643854	0.359108	0.543828
	H298	H	0.653045	0.357869	0.527488
	H299	H	0.658068	0.349466	0.549173
	O300	O	-0.520261	-0.721649	1.698956
	H301	H	-0.529399	-0.714765	1.712131
	H302	H	-0.537455	-0.730534	1.708329
	O303	O	0.482504	0.585922	0.405335
	H304	H	0.486882	0.582344	0.411967
	H305	H	0.492904	0.580694	0.402754
	O306	O	0.522513	0.279934	0.266044
	H307	H	0.534252	0.270985	0.260968
	H308	H	0.520944	0.275294	0.273133
	O309	O	0.555101	0.675283	0.429776
	H310	H	0.564061	0.678934	0.433965
	H311	H	0.565706	0.681666	0.415159
	O312	O	0.436411	0.699986	0.565802
	H313	H	0.457022	0.701560	0.543224
	H314	H	0.431302	0.699190	0.552087
	O315	O	1.025108	0.798879	1.008433
	H316	H	1.046662	0.801685	1.010466
	H317	H	1.021742	0.791204	1.011115
	O318	O	0.571872	0.589489	0.575956
	H319	H	0.565595	0.584961	0.573975
	H320	H	0.568393	0.602921	0.574767
	O321	O	0.292613	0.699036	0.694957
	H322	H	0.304739	0.680638	0.690667
	H323	H	0.320131	0.679422	0.677095
	O324	O	0.979501	1.211249	-0.230538
	H325	H	0.973448	1.198588	-0.230492
	H326	H	0.975149	1.224958	-0.245596
	O327	O	0.030981	0.220083	1.200033
	H328	H	0.040445	0.247892	1.223649
	H329	H	0.061306	0.212805	1.199804
	O330	O	0.676529	0.676382	0.300011
	H331	H	0.705065	0.703035	0.276203
	H332	H	0.669213	0.656743	0.315245
	O333	O	0.726710	0.461216	0.261552
	H334	H	0.756405	0.454268	0.232547
	H335	H	0.723214	0.435028	0.269726
	O336	O	0.371953	0.444661	0.516708
	H337	H	0.362529	0.440250	0.515311
	H338	H	0.380495	0.451104	0.495708
	O339	O	1.024869	-0.206681	0.849679
	H340	H	1.042142	-0.217470	0.843742
	H341	H	1.024910	-0.209536	0.856969
	O342	O	-0.179557	-0.000826	-0.237431
	H343	H	-0.178638	0.017119	-0.233841
	H344	H	-0.182283	0.003052	-0.249616
	O345	O	0.231397	1.011022	1.207056
	H346	H	0.234558	1.043105	1.215972
	H347	H	0.242225	1.032256	1.222548
	O348	O	0.221867	0.208280	0.026895
	H349	H	0.215103	0.218155	0.006730
	H350	H	0.221578	0.223818	0.011820
	O351	O	0.314889	0.304671	0.293032
	H352	H	0.339201	0.320184	0.306338
	H353	H	0.329073	0.322009	0.315380
	O354	O	-0.205402	-0.216473	1.194625
	H355	H	-0.200685	-0.175875	1.194372
	H356	H	-0.180252	-0.220038	1.166514
	O357	O	0.708160	0.696671	0.691990
	H358	H	0.728301	0.715324	0.719794
	H359	H	0.682328	0.705664	0.686000
	O360	O	0.290580	0.281844	0.698526
	H361	H	0.294720	0.306597	0.684131
	H362	H	0.275741	0.264358	0.717491
	O363	O	-0.224001	-0.054313	0.192811
	H364	H	-0.210803	-0.050141	0.207073
	H365	H	-0.226259	-0.045412	0.207541
	O366	O	0.693694	0.301719	0.675928
	H367	H	0.691654	0.305420	0.669977
	H368	H	0.676005	0.321959	0.662819
	O369	O	0.447347	0.277087	0.484005
	H370	H	0.438619	0.276943	0.484225
	H371	H	0.459002	0.286363	0.500957
	O372	O	0.772440	1.233054	0.207835
	H373	H	0.796763	1.220121	0.182899
	H374	H	0.750558	1.219005	0.215786
	O375	O	1.033583	0.027738	0.097174
	H376	H	1.042897	0.035435	0.098327
	H377	H	1.044572	0.025181	0.077634
	O378	O	0.576873	0.652663	0.353029
	H379	H	0.567588	0.649390	0.348194
	H380	H	0.567209	0.665514	0.360589
	O381	O	-0.028919	0.952276	0.808952
	H382	H	-0.029765	0.940779	0.800514
	H383	H	-0.026983	0.935391	0.803206
	O384	O	1.143034	-0.017422	1.013888
	H385	H	1.140735	-0.006059	1.020284
	H386	H	1.134831	-0.000362	1.018317
	O387	O	1.068743	1.220694	-0.052822
	H388	H	1.062205	1.222446	-0.069579
	H389	H	1.038194	1.218257	-0.060587
	O390	O	0.476290	0.460273	0.254824
	H391	H	0.503496	0.480672	0.259579
	H392	H	0.486431	0.443196	0.253436
	O393	O	0.298050	0.527150	0.668074
	H394	H	0.297845	0.523759	0.654100
	H395	H	0.299175	0.514238	0.668645
	O396	O	-0.037248	1.201852	1.017670
	H397	H	-0.033232	1.186987	1.018442
	H398	H	-0.029577	1.204428	1.026344
	O399	O	0.222762	0.047450	0.920670
	H400	H	0.226445	0.038293	0.905309
	H401	H	0.220916	0.054273	0.923754
	O402	O	0.619373	0.277288	0.430499
	H403	H	0.613776	0.273781	0.459667
	H404	H	0.629736	0.280971	0.445436
	O405	O	0.839863	0.158050	0.775664
	H406	H	0.856122	0.145921	0.788697
	H407	H	0.820669	0.173789	0.750686
	O408	O	0.224614	-0.029369	-0.230371
	H409	H	0.247170	-0.043919	-0.250346
	H410	H	0.223746	-0.056478	-0.231993
	O411	O	0.904215	0.998392	1.179029
	H412	H	0.914984	0.994629	1.175725
	H413	H	0.920255	0.999189	1.183924
	O414	O	0.292167	0.668735	0.279478
	H415	H	0.291289	0.641505	0.274027
	H416	H	0.287190	0.688250	0.264582
	O417	O	0.723046	0.662510	0.488048
	H418	H	0.728950	0.661307	0.497342
	H419	H	0.732827	0.675350	0.496130
	O420	O	0.284492	0.270646	0.515688
	H421	H	0.284116	0.263410	0.532629
	H422	H	0.268509	0.257533	0.511362
	O423	O	0.063029	0.039109	0.768186
	H424	H	0.065298	0.020982	0.759440
	H425	H	0.060562	0.039124	0.772297
	O426	O	0.314512	0.553179	0.318788
	H427	H	0.326380	0.548267	0.318477
	H428	H	0.303287	0.547956	0.290651
	O429	O	1.213437	1.203345	1.200276
	H430	H	1.218666	1.208939	1.149362
	H431	H	1.248348	1.237362	1.227542
	O432	O	0.582866	0.596749	0.439535
	H433	H	0.595505	0.601593	0.434331
	H434	H	0.590355	0.590170	0.430386
	O435	O	-0.025661	1.012691	-0.099648
	H436	H	-0.026843	1.008623	-0.105560
	H437	H	-0.028579	1.026578	-0.114636
	O438	O	0.114347	-0.116774	0.062676
	H439	H	0.121838	-0.109626	0.066842
	H440	H	0.102936	-0.119982	0.072007
	O441	O	0.223434	-0.224568	-0.048611
	H442	H	0.235733	-0.227528	-0.045404
	H443	H	0.241845	-0.218622	-0.039289
	O444	O	0.731532	0.460876	0.501119
	H445	H	0.732175	0.464367	0.502081
	H446	H	0.733803	0.463655	0.481907
	O447	O	-0.088860	1.136618	0.897254
	H448	H	-0.094178	1.140545	0.921017
	H449	H	-0.084495	1.115641	0.886607
	O450	O	0.059032	0.997594	1.053202
	H451	H	0.061649	0.991714	1.053648
	H452	H	0.074990	1.005172	1.061840
	O453	O	0.388489	0.516024	0.657757
	H454	H	0.392687	0.516933	0.653618
	H455	H	0.385686	0.517424	0.649501
	O456	O	0.187679	0.180539	0.797360
	H457	H	0.170824	0.157948	0.807229
	H458	H	0.182612	0.175693	0.793720
	O459	O	0.352358	0.441660	0.392153
	H460	H	0.356342	0.435589	0.398143
	H461	H	0.374076	0.447983	0.397486
	O462	O	0.783424	0.937701	0.917905
	H463	H	0.777436	0.958790	0.913054
	H464	H	0.779243	0.939392	0.924872
	O465	O	0.986755	-0.216692	-0.170857
	H466	H	0.998135	-0.231941	-0.184810
	H467	H	1.008136	-0.216004	-0.152801
	O468	O	0.540263	0.583294	0.257493
	H469	H	0.556789	0.588663	0.263826
	H470	H	0.560289	0.597257	0.248199
	O471	O	0.284445	0.712050	0.455110
	H472	H	0.280673	0.717704	0.436978
	H473	H	0.270971	0.722431	0.455853
	O474	O	0.724806	0.521709	0.708656
	H475	H	0.731558	0.541122	0.701888
	H476	H	0.744634	0.542441	0.726363
	O477	O	0.278730	0.535758	1.505135
	H478	H	0.287451	0.537753	1.488542
	H479	H	0.275882	0.535788	1.505230
	O480	O	0.626728	0.371326	0.348293
	H481	H	0.627196	0.387136	0.339691
	H482	H	0.635396	0.375389	0.373980
	O483	O	0.520352	0.490926	0.705467
	H484	H	0.534896	0.512467	0.701240
	H485	H	0.538866	0.480695	0.702290
	O486	O	1.189010	-0.196898	0.791376
	H487	H	1.200429	-0.205506	0.803488
	H488	H	1.197506	-0.221339	0.783741
	O489	O	0.763198	1.050243	0.036000
	H490	H	0.761465	1.062546	0.045454
	H491	H	0.758874	1.053589	0.046144
	O492	O	-0.039087	-0.067563	-0.022978
	H493	H	-0.044154	-0.064631	-0.025796
	H494	H	-0.033168	-0.081936	-0.028658
	O495	O	-0.209092	0.782269	1.015974
	H496	H	-0.214114	0.771228	1.003962
	H497	H	-0.209396	0.791042	1.024643
	O498	O	0.776484	1.212842	0.952215
	H499	H	0.775528	1.228101	0.951594
	H500	H	0.764845	1.225976	0.947057
	O501	O	0.814484	0.808549	0.800573
	H502	H	0.825499	0.826866	0.821463
	H503	H	0.836966	0.823127	0.816740
