data_Molecule from HDF5

_cell_length_a		16.421089
_cell_length_b		15.928536
_cell_length_c		16.332301
_cell_angle_alpha	90.071272
_cell_angle_beta	89.810773
_cell_angle_gamma	89.860122
_symmetry_space_group_name_H-M	'P 1'
_symmetry_Int_Tables_number		1

loop_
	_symmetry_equiv_pos_as_xyz
	x,y,z

loop_
	_atom_site_label
	_atom_site_type_symbol
	_atom_site_fract_x
	_atom_site_fract_y
	_atom_site_fract_z
	H0	H	0.384562	0.839645	0.708414
	H1	H	0.585404	0.171079	0.706144
	H2	H	0.589376	0.839201	0.276291
	H3	H	0.386251	0.169469	0.278157
	H4	H	0.707535	0.397542	0.832937
	H5	H	0.706012	0.612984	0.152247
	H6	H	0.265906	0.611415	0.831416
	H7	H	0.266371	0.402858	0.154827
	H8	H	0.823273	0.719880	0.396027
	H9	H	0.148772	0.718989	0.589452
	H10	H	0.824180	0.289381	0.592737
	H11	H	0.148498	0.290051	0.393436
	H12	H	0.827550	0.396851	0.715521
	H13	H	0.146869	0.609494	0.711218
	H14	H	0.826695	0.613629	0.271373
	H15	H	0.146837	0.402389	0.273275
	H16	H	0.389766	0.717869	0.827894
	H17	H	0.581614	0.719596	0.155353
	H18	H	0.583052	0.291657	0.829751
	H19	H	0.389125	0.292839	0.157727
	H20	H	0.703360	0.840245	0.389719
	H21	H	0.703556	0.168542	0.598312
	H22	H	0.273220	0.837659	0.592542
	H23	H	0.268785	0.168369	0.389206
	H24	H	0.886777	0.340150	0.206875
	H25	H	0.083844	0.672012	0.204865
	H26	H	0.087157	0.339602	0.778896
	H27	H	0.886346	0.670868	0.778630
	H28	H	0.204974	0.897874	0.330965
	H29	H	0.203887	0.106995	0.653535
	H30	H	0.765857	0.110597	0.332456
	H31	H	0.765594	0.899912	0.653354
	H32	H	0.322142	0.219392	0.899238
	H33	H	0.649061	0.220260	0.091132
	H34	H	0.323130	0.793891	0.086899
	H35	H	0.649450	0.791367	0.894025
	H36	H	0.326910	0.900042	0.211924
	H37	H	0.647232	0.110189	0.212370
	H38	H	0.325387	0.109875	0.774390
	H39	H	0.647240	0.903337	0.772396
	H40	H	0.889903	0.218362	0.328727
	H41	H	0.081733	0.217811	0.656172
	H42	H	0.080756	0.792751	0.328086
	H43	H	0.890383	0.792712	0.656498
	H44	H	0.202097	0.340224	0.892086
	H45	H	0.199153	0.671698	0.093449
	H46	H	0.771892	0.339644	0.094415
	H47	H	0.771028	0.670205	0.891823
	H48	H	0.392982	0.124654	0.584955
	H49	H	0.574682	0.885247	0.585735
	H50	H	0.577483	0.121885	0.407003
	H51	H	0.392016	0.884703	0.404354
	H52	H	0.589772	0.424661	0.109159
	H53	H	0.588585	0.593440	0.874551
	H54	H	0.389679	0.597912	0.108932
	H55	H	0.385554	0.413094	0.875615
	H56	H	0.102825	0.603314	0.398748
	H57	H	0.872138	0.594066	0.584129
	H58	H	0.101905	0.415253	0.587286
	H59	H	0.866214	0.406351	0.392877
	H60	H	0.101675	0.412100	0.586839
	H61	H	0.871247	0.594094	0.590592
	H62	H	0.097860	0.592967	0.404447
	H63	H	0.873638	0.413067	0.409488
	H64	H	0.390487	0.596837	0.107981
	H65	H	0.574999	0.587030	0.880138
	H66	H	0.568338	0.419834	0.104492
	H67	H	0.393178	0.423020	0.880142
	H68	H	0.579537	0.125208	0.399066
	H69	H	0.571410	0.889845	0.578049
	H70	H	0.395552	0.122257	0.581429
	H71	H	0.395361	0.882615	0.396431
	H72	H	0.887542	0.626336	0.079876
	H73	H	0.075733	0.384110	0.093047
	H74	H	0.081080	0.624840	0.902055
	H75	H	0.893714	0.387090	0.907493
	H76	H	0.080909	0.913566	0.608579
	H77	H	0.084409	0.103111	0.372129
	H78	H	0.893402	0.110500	0.612615
	H79	H	0.896638	0.919992	0.379312
	H80	H	0.603626	0.103772	0.895002
	H81	H	0.374347	0.093772	0.082573
	H82	H	0.601138	0.916671	0.085508
	H83	H	0.372897	0.915188	0.900724
	H84	H	0.602915	0.913160	0.085267
	H85	H	0.370363	0.094112	0.092004
	H86	H	0.598471	0.095873	0.904508
	H87	H	0.370811	0.916358	0.894645
	H88	H	0.878828	0.086793	0.609351
	H89	H	0.085181	0.085260	0.377917
	H90	H	0.081251	0.912300	0.609700
	H91	H	0.894741	0.908378	0.375778
	H92	H	0.074164	0.625144	0.897127
	H93	H	0.069486	0.390438	0.077761
	H94	H	0.896275	0.626476	0.088983
	H95	H	0.893984	0.384279	0.899674
	H96	H	0.391826	0.123147	0.580065
	H97	H	0.580464	0.886389	0.578778
	H98	H	0.571430	0.121983	0.400178
	H99	H	0.400293	0.887044	0.401709
	H100	H	0.581448	0.403957	0.113100
	H101	H	0.575254	0.602893	0.874240
	H102	H	0.390963	0.598476	0.109023
	H103	H	0.399114	0.411226	0.878004
	H104	H	0.102031	0.592171	0.391406
	H105	H	0.870312	0.600028	0.587070
	H106	H	0.100252	0.413787	0.583898
	H107	H	0.872221	0.424951	0.393585
	H108	H	0.898725	0.622032	0.077687
	H109	H	0.086126	0.384698	0.078082
	H110	H	0.074009	0.623484	0.905748
	H111	H	0.901106	0.387576	0.903438
	H112	H	0.082197	0.913670	0.608729
	H113	H	0.070172	0.095041	0.379044
	H114	H	0.905569	0.087361	0.601839
	H115	H	0.886548	0.916531	0.375394
	H116	H	0.601338	0.090553	0.892930
	H117	H	0.370298	0.102226	0.085890
	H118	H	0.602019	0.914883	0.082596
	H119	H	0.369185	0.910550	0.897188
	C120	C	0.364628	0.013575	0.612450
	C121	C	0.605868	0.995953	0.612157
	C122	C	0.606918	0.013676	0.371395
	C123	C	0.365576	0.994381	0.371021
	C124	C	0.608801	0.384249	0.001863
	C125	C	0.608162	0.626221	0.983317
	C126	C	0.362191	0.627949	0.000871
	C127	C	0.363563	0.385351	0.985298
	C128	C	-0.005488	0.627471	0.369411
	C129	C	0.977632	0.626662	0.615339
	C130	C	-0.005003	0.382491	0.615757
	C131	C	0.977690	0.384267	0.369550
	C132	C	0.864926	0.514924	0.112884
	C133	C	0.105794	0.496649	0.112640
	C134	C	0.106842	0.514685	0.872244
	C135	C	0.865990	0.495800	0.872656
	C136	C	0.108935	0.882438	0.501054
	C137	C	0.108570	0.125256	0.483614
	C138	C	0.863096	0.126654	0.501558
	C139	C	0.863666	0.884236	0.484073
	C140	C	0.494066	0.127467	0.869922
	C141	C	0.478248	0.127510	0.115956
	C142	C	0.495337	0.884065	0.113581
	C143	C	0.477847	0.883701	0.868379
	C144	C	0.365854	0.888973	0.669522
	C145	C	0.605195	0.120969	0.668999
	C146	C	0.607725	0.888948	0.314494
	C147	C	0.366135	0.119505	0.315183
	C148	C	0.666966	0.380927	0.880723
	C149	C	0.665719	0.629465	0.104561
	C150	C	0.305544	0.628865	0.879269
	C151	C	0.305950	0.384230	0.106734
	C152	C	0.872432	0.683534	0.373613
	C153	C	0.099785	0.682293	0.611413
	C154	C	0.873005	0.326564	0.613033
	C155	C	0.099715	0.327676	0.372245
	C156	C	0.874883	0.379955	0.674641
	C157	C	0.098749	0.627632	0.671894
	C158	C	0.874146	0.630328	0.311517
	C159	C	0.098940	0.384008	0.312548
	C160	C	0.367028	0.682147	0.877535
	C161	C	0.604001	0.682767	0.106232
	C162	C	0.605085	0.328344	0.879012
	C163	C	0.367095	0.329661	0.108187
	C164	C	0.664573	0.889705	0.370940
	C165	C	0.663569	0.119877	0.614749
	C166	C	0.310165	0.887918	0.611909
	C167	C	0.307812	0.118861	0.370633
	C168	C	0.866821	0.390040	0.169358
	C169	C	0.104095	0.622078	0.168040
	C170	C	0.106981	0.389312	0.816387
	C171	C	0.866606	0.620914	0.816203
	C172	C	0.165650	0.880471	0.379167
	C173	C	0.165029	0.125629	0.605363
	C174	C	0.805551	0.128460	0.380225
	C175	C	0.805949	0.882535	0.605665
	C176	C	0.371462	0.182683	0.876039
	C177	C	0.600174	0.183276	0.112743
	C178	C	0.372372	0.829732	0.109265
	C179	C	0.600549	0.828180	0.871960
	C180	C	0.374420	0.882523	0.171561
	C181	C	0.599117	0.128066	0.172811
	C182	C	0.372925	0.128093	0.814033
	C183	C	0.599569	0.883855	0.811558
	C184	C	0.867058	0.182261	0.378326
	C185	C	0.104139	0.180715	0.606749
	C186	C	0.103469	0.828202	0.377428
	C187	C	0.868034	0.829239	0.607286
	C188	C	0.163659	0.389544	0.873169
	C189	C	0.161173	0.622012	0.112383
	C190	C	0.809329	0.389930	0.113507
	C191	C	0.809129	0.620536	0.872486
	C192	C	0.386875	0.100627	0.589071
	C193	C	0.582340	0.909510	0.587929
	C194	C	0.582949	0.100460	0.395124
	C195	C	0.388937	0.907409	0.394100
	C196	C	0.586384	0.408886	0.086900
	C197	C	0.586052	0.601765	0.898447
	C198	C	0.383931	0.604732	0.086274
	C199	C	0.385992	0.408884	0.900105
	C200	C	0.079117	0.603098	0.391513
	C201	C	0.893165	0.603191	0.593517
	C202	C	0.079354	0.406554	0.592862
	C203	C	0.892731	0.407796	0.392108
	C204	C	0.887457	0.602352	0.089169
	C205	C	0.083643	0.409109	0.089605
	C206	C	0.083264	0.601815	0.895034
	C207	C	0.889520	0.408939	0.896405
	C208	C	0.087463	0.906084	0.586795
	C209	C	0.086388	0.101487	0.398319
	C210	C	0.885808	0.102233	0.586009
	C211	C	0.886089	0.908058	0.398906
	C212	C	0.579074	0.103670	0.891241
	C213	C	0.393496	0.103807	0.093324
	C214	C	0.579947	0.907980	0.091147
	C215	C	0.393090	0.907178	0.890870
	Zn216	Zn	0.486033	0.005906	0.738835
	Zn217	Zn	0.487117	0.004240	0.243951
	Zn218	Zn	0.737918	0.504838	-0.007126
	Zn219	Zn	0.232991	0.506225	-0.006711
	Zn220	Zn	-0.014109	0.755662	0.492595
	Zn221	Zn	-0.014166	0.254744	0.492358
	Zn222	Zn	-0.013111	0.504623	0.745019
	Zn223	Zn	-0.014329	0.506144	0.239373
	Zn224	Zn	0.486039	0.754825	-0.008326
	Zn225	Zn	0.486445	0.256710	-0.006261
	Zn226	Zn	0.733702	0.005136	0.492954
	Zn227	Zn	0.238345	0.002849	0.491727
	N228	N	0.399176	0.968024	0.670070
	N229	N	0.569966	0.042812	0.667505
	N230	N	0.572353	0.967127	0.314951
	N231	N	0.401330	0.041110	0.315271
	N232	N	0.669440	0.415078	0.958112
	N233	N	0.668407	0.595069	0.027215
	N234	N	0.302179	0.596038	0.957117
	N235	N	0.303734	0.418239	0.029344
	N236	N	0.948300	0.681968	0.409014
	N237	N	0.023411	0.682115	0.577011
	N238	N	0.948841	0.328062	0.577039
	N239	N	0.023427	0.327892	0.407120
	N240	N	0.951600	0.414299	0.676387
	N241	N	0.021968	0.593423	0.674621
	N242	N	0.951032	0.596067	0.308990
	N243	N	0.021821	0.418103	0.310425
	N244	N	0.401585	0.681932	0.954083
	N245	N	0.568787	0.680981	0.029899
	N246	N	0.569514	0.330246	0.955306
	N247	N	0.402123	0.329983	0.031627
	N248	N	0.664311	0.968428	0.405503
	N249	N	0.664175	0.041310	0.580037
	N250	N	0.309085	0.966503	0.577127
	N251	N	0.307248	0.039942	0.404542
	N252	N	0.900466	0.469087	0.169248
	N253	N	0.070405	0.543090	0.168294
	N254	N	0.072431	0.468101	0.815620
	N255	N	0.901407	0.542214	0.816198
	N256	N	0.168959	0.913421	0.456930
	N257	N	0.168149	0.092116	0.527615
	N258	N	0.802836	0.094756	0.457693
	N259	N	0.803042	0.915747	0.527913
	N260	N	0.447987	0.182598	0.909867
	N261	N	0.524032	0.183075	0.077874
	N262	N	0.448509	0.830459	0.073864
	N263	N	0.523833	0.827407	0.906164
	N264	N	0.451778	0.915459	0.174255
	N265	N	0.522125	0.094118	0.174914
	N266	N	0.450117	0.094791	0.810199
	N267	N	0.522446	0.917367	0.809235
	N268	N	0.902072	0.181436	0.454673
	N269	N	0.069873	0.180584	0.530069
	N270	N	0.069144	0.829051	0.454525
	N271	N	0.903151	0.830081	0.530720
	N272	N	0.163994	0.468713	0.906724
	N273	N	0.162391	0.542924	0.078712
	N274	N	0.807964	0.468811	0.079290
	N275	N	0.808517	0.541699	0.906615
	O276	O	1.017728	-0.029159	0.937658
	H277	H	1.017108	-0.027435	0.940906
	H278	H	1.015872	-0.029070	0.938253
	O279	O	0.319301	0.403837	0.656675
	H280	H	0.328929	0.389463	0.663855
	H281	H	0.309769	0.385962	0.676549
	O282	O	0.387198	0.539896	0.432061
	H283	H	0.390819	0.529458	0.438349
	H284	H	0.385660	0.527304	0.432002
	O285	O	0.487957	0.368070	0.560999
	H286	H	0.500447	0.385676	0.560730
	H287	H	0.502782	0.367131	0.553812
	O288	O	0.401844	0.352748	0.689683
	H289	H	0.425151	0.346053	0.686504
	H290	H	0.415043	0.348850	0.692522
	O291	O	0.413290	-0.366733	1.405337
	H292	H	0.412351	-0.358070	1.399201
	H293	H	0.404886	-0.365850	1.402886
	O294	O	1.022965	1.122852	0.034605
	H295	H	1.038095	1.122651	0.041397
	H296	H	1.012900	1.134553	0.038479
	O297	O	1.110124	0.939452	-0.027397
	H298	H	1.115971	0.943970	-0.036753
	H299	H	1.115033	0.940910	-0.012724
	O300	O	0.366366	0.371478	0.437614
	H301	H	0.373928	0.380254	0.454993
	H302	H	0.354596	0.359554	0.445313
	O303	O	0.646861	0.419153	0.477392
	H304	H	0.656219	0.419345	0.478781
	H305	H	0.648411	0.414609	0.477135
	O306	O	0.630411	0.445529	0.329305
	H307	H	0.640160	0.451280	0.331017
	H308	H	0.616920	0.440222	0.329258
	O309	O	0.582714	0.481735	0.631996
	H310	H	0.606695	0.490819	0.634208
	H311	H	0.572221	0.492398	0.623517
	O312	O	0.962904	0.937695	1.025588
	H313	H	0.958729	0.952648	1.020622
	H314	H	0.967357	0.939655	1.022880
	O315	O	1.066480	1.084324	-0.032724
	H316	H	1.074887	1.086625	-0.032534
	H317	H	1.060293	1.082293	-0.038060
	O318	O	0.460197	0.539369	0.478276
	H319	H	0.459638	0.548767	0.474488
	H320	H	0.462801	0.541564	0.481116
	O321	O	0.587554	0.577514	0.389674
	H322	H	0.593766	0.588082	0.396272
	H323	H	0.585349	0.574249	0.387054
	O324	O	-0.021010	1.025962	1.008004
	H325	H	-0.025307	1.020870	1.012983
	H326	H	-0.026541	1.023326	1.013438
	O327	O	0.043267	1.047615	0.988162
	H328	H	0.049078	1.050578	0.990421
	H329	H	0.043932	1.040576	0.986171
	O330	O	0.032945	0.007187	-0.047591
	H331	H	0.029404	0.006996	-0.051178
	H332	H	0.027126	0.002302	-0.055783
	O333	O	0.328690	0.569127	0.395318
	H334	H	0.328074	0.571871	0.376415
	H335	H	0.318758	0.567474	0.399021
	O336	O	0.011472	0.045356	-0.018210
	H337	H	0.008293	0.050254	-0.016203
	H338	H	0.020465	0.038880	-0.017564
	O339	O	-0.021333	0.011447	0.046192
	H340	H	-0.015293	0.005981	0.034024
	H341	H	-0.021302	0.008839	0.036435
	O342	O	0.463335	0.501799	0.558808
	H343	H	0.468624	0.498146	0.550508
	H344	H	0.450747	0.507637	0.558514
	O345	O	-0.144794	0.976241	0.979874
	H346	H	-0.146262	0.983473	0.978529
	H347	H	-0.148595	0.980688	0.980906
	O348	O	0.562629	0.578617	0.542832
	H349	H	0.566140	0.594388	0.532055
	H350	H	0.540579	0.585031	0.544202
	O351	O	0.483085	0.677674	0.607210
	H352	H	0.459895	0.668090	0.596452
	H353	H	0.482344	0.685958	0.625501
	O354	O	-0.097763	1.134339	-0.014792
	H355	H	-0.097267	1.131795	-0.016038
	H356	H	-0.105228	1.135001	-0.005930
	O357	O	0.673498	0.426153	0.411335
	H358	H	0.673356	0.434436	0.398709
	H359	H	0.693846	0.416059	0.399437
	O360	O	1.601890	-0.452286	1.489347
	H361	H	1.619167	-0.435812	1.497423
	H362	H	1.583019	-0.451859	1.496706
	O363	O	0.424152	0.653694	0.510893
	H364	H	0.429414	0.650614	0.507582
	H365	H	0.426762	0.645727	0.503862
	O366	O	0.501227	0.515851	0.363704
	H367	H	0.480859	0.517988	0.354437
	H368	H	0.492770	0.519293	0.380680
	O369	O	1.021581	-0.048917	0.043477
	H370	H	1.036534	-0.051623	0.053864
	H371	H	1.023833	-0.062418	0.040575
	O372	O	0.467246	0.454340	0.381118
	H373	H	0.473612	0.445806	0.396890
	H374	H	0.450471	0.440047	0.374437
	O375	O	1.064594	-0.127869	1.033131
	H376	H	1.068233	-0.142113	1.031052
	H377	H	1.074619	-0.106310	1.034184
	O378	O	-0.114728	0.993408	0.007081
	H379	H	-0.105712	0.986279	0.002981
	H380	H	-0.105440	0.994732	0.016842
	O381	O	0.377593	0.361644	0.484619
	H382	H	0.386563	0.367568	0.502557
	H383	H	0.366074	0.356859	0.486848
	O384	O	1.051077	0.998568	-0.066017
	H385	H	1.059369	0.993309	-0.068139
	H386	H	1.054005	0.991433	-0.063422
	O387	O	1.462481	0.518478	1.620228
	H388	H	1.461448	0.514250	1.601663
	H389	H	1.460492	0.503077	1.639532
	O390	O	0.981075	1.012637	-0.168869
	H391	H	0.965387	1.017820	-0.162685
	H392	H	0.973886	1.007187	-0.173234
	O393	O	0.656691	0.534095	0.611471
	H394	H	0.665355	0.556128	0.602930
	H395	H	0.679322	0.536121	0.618184
