data_Molecule from HDF5

_cell_length_a		16.473576
_cell_length_b		16.555752
_cell_length_c		16.513115
_cell_angle_alpha	90.082514
_cell_angle_beta	89.958906
_cell_angle_gamma	90.122017
_symmetry_space_group_name_H-M	'P 1'
_symmetry_Int_Tables_number		1

loop_
	_symmetry_equiv_pos_as_xyz
	x,y,z

loop_
	_atom_site_label
	_atom_site_type_symbol
	_atom_site_fract_x
	_atom_site_fract_y
	_atom_site_fract_z
	H0	H	0.374733	0.856983	0.715552
	H1	H	0.582475	0.172424	0.716824
	H2	H	0.586063	0.856820	0.273460
	H3	H	0.376166	0.170011	0.276035
	H4	H	0.698508	0.412391	0.839272
	H5	H	0.700376	0.620768	0.154977
	H6	H	0.260360	0.614580	0.838810
	H7	H	0.261021	0.411858	0.155628
	H8	H	0.818937	0.732065	0.393981
	H9	H	0.135740	0.736487	0.601592
	H10	H	0.821868	0.293469	0.601772
	H11	H	0.136574	0.294144	0.391283
	H12	H	0.822520	0.409122	0.717976
	H13	H	0.134881	0.621354	0.718882
	H14	H	0.819188	0.615813	0.278098
	H15	H	0.138818	0.414195	0.279515
	H16	H	0.376822	0.731676	0.838298
	H17	H	0.585863	0.738117	0.153464
	H18	H	0.585570	0.291963	0.840915
	H19	H	0.376622	0.294904	0.155403
	H20	H	0.701111	0.856326	0.391229
	H21	H	0.698287	0.172362	0.599703
	H22	H	0.257726	0.857376	0.599916
	H23	H	0.259220	0.170511	0.392782
	H24	H	0.875794	0.356595	0.216474
	H25	H	0.085178	0.671242	0.217793
	H26	H	0.087144	0.358961	0.771716
	H27	H	0.872574	0.669589	0.773386
	H28	H	0.199975	0.909782	0.339226
	H29	H	0.201242	0.120710	0.651976
	H30	H	0.756254	0.118577	0.340246
	H31	H	0.760775	0.912904	0.655810
	H32	H	0.321767	0.234626	0.893089
	H33	H	0.636129	0.236546	0.102728
	H34	H	0.321878	0.792320	0.101439
	H35	H	0.635824	0.792326	0.890188
	H36	H	0.323214	0.906543	0.218965
	H37	H	0.637237	0.118621	0.218417
	H38	H	0.321627	0.119043	0.776354
	H39	H	0.636504	0.911607	0.776073
	H40	H	0.872285	0.236943	0.340366
	H41	H	0.086682	0.239067	0.651428
	H42	H	0.083476	0.793281	0.338441
	H43	H	0.874465	0.794448	0.654480
	H44	H	0.201308	0.357183	0.890237
	H45	H	0.201901	0.670469	0.101317
	H46	H	0.758494	0.357598	0.100003
	H47	H	0.757347	0.670440	0.891558
	H48	H	0.388678	0.124964	0.582768
	H49	H	0.573069	0.899555	0.588723
	H50	H	0.564709	0.125888	0.403032
	H51	H	0.384585	0.897213	0.403705
	H52	H	0.565926	0.426704	0.109110
	H53	H	0.567355	0.603397	0.885070
	H54	H	0.393265	0.605325	0.109376
	H55	H	0.385717	0.426146	0.883632
	H56	H	0.090771	0.608044	0.411788
	H57	H	0.867072	0.597527	0.587351
	H58	H	0.091327	0.422989	0.579971
	H59	H	0.865921	0.426122	0.404749
	H60	H	0.088883	0.432913	0.581186
	H61	H	0.863578	0.606940	0.587916
	H62	H	0.090458	0.599912	0.405735
	H63	H	0.863656	0.421586	0.405650
	H64	H	0.388782	0.602872	0.110488
	H65	H	0.569309	0.605415	0.883681
	H66	H	0.567574	0.422652	0.110334
	H67	H	0.396051	0.424931	0.885484
	H68	H	0.564852	0.122492	0.411548
	H69	H	0.565007	0.901504	0.590536
	H70	H	0.386496	0.129535	0.588856
	H71	H	0.397903	0.901996	0.404156
	H72	H	0.887518	0.627678	0.085197
	H73	H	0.066303	0.400281	0.094608
	H74	H	0.062401	0.623712	0.908893
	H75	H	0.893990	0.405647	0.913298
	H76	H	0.065519	0.930988	0.605858
	H77	H	0.068030	0.098750	0.385236
	H78	H	0.886869	0.102481	0.609837
	H79	H	0.887365	0.924679	0.383541
	H80	H	0.593117	0.103172	0.904598
	H81	H	0.366120	0.102312	0.088380
	H82	H	0.588174	0.927760	0.074248
	H83	H	0.366106	0.923290	0.909392
	H84	H	0.590934	0.933182	0.089804
	H85	H	0.366628	0.105350	0.085903
	H86	H	0.591678	0.105718	0.910120
	H87	H	0.365078	0.924935	0.903966
	H88	H	0.893043	0.101245	0.606837
	H89	H	0.063675	0.105060	0.384015
	H90	H	0.062160	0.920480	0.608602
	H91	H	0.890635	0.924138	0.384241
	H92	H	0.071453	0.625118	0.914325
	H93	H	0.066431	0.403803	0.082871
	H94	H	0.889423	0.628052	0.090184
	H95	H	0.883658	0.400958	0.909471
	H96	H	0.393675	0.125877	0.588368
	H97	H	0.567920	0.903637	0.583065
	H98	H	0.572566	0.126361	0.407875
	H99	H	0.389012	0.903653	0.415130
	H100	H	0.570062	0.426456	0.110674
	H101	H	0.569949	0.602823	0.884642
	H102	H	0.392179	0.600427	0.107589
	H103	H	0.390172	0.417036	0.882388
	H104	H	0.094298	0.608424	0.402369
	H105	H	0.867681	0.603911	0.579704
	H106	H	0.093450	0.427158	0.589412
	H107	H	0.866957	0.424253	0.409381
	H108	H	0.892917	0.626056	0.086779
	H109	H	0.076552	0.398681	0.088453
	H110	H	0.071227	0.627587	0.904932
	H111	H	0.893364	0.400853	0.902515
	H112	H	0.072482	0.924005	0.610480
	H113	H	0.070943	0.104654	0.381800
	H114	H	0.891800	0.107129	0.609895
	H115	H	0.888524	0.921750	0.382659
	H116	H	0.590593	0.100141	0.909031
	H117	H	0.367521	0.101297	0.085473
	H118	H	0.595392	0.917445	0.085650
	H119	H	0.363875	0.919594	0.905612
	C120	C	0.357093	0.023041	0.617978
	C121	C	0.600224	1.005938	0.618520
	C122	C	0.600660	0.021440	0.375144
	C123	C	0.358708	1.004927	0.375636
	C124	C	0.600232	0.393178	0.005942
	C125	C	0.601348	0.636538	0.988448
	C126	C	0.359593	0.633606	0.004845
	C127	C	0.358377	0.391720	0.988278
	C128	C	-0.013169	0.635647	0.375503
	C129	C	0.970010	0.635464	0.617571
	C130	C	-0.012334	0.394247	0.616587
	C131	C	0.970518	0.393200	0.375335
	C132	C	0.858259	0.522890	0.118465
	C133	C	0.101874	0.504992	0.119464
	C134	C	0.100783	0.522124	0.875803
	C135	C	0.857696	0.505478	0.875347
	C136	C	0.099431	0.892906	0.504589
	C137	C	0.100430	0.135810	0.487112
	C138	C	0.857613	0.135713	0.504918
	C139	C	0.856990	0.892532	0.487797
	C140	C	0.487639	0.134770	0.876281
	C141	C	0.471175	0.135178	0.118690
	C142	C	0.488084	0.892924	0.116609
	C143	C	0.470077	0.892311	0.874737
	C144	C	0.355808	0.904351	0.676258
	C145	C	0.601388	0.124884	0.677246
	C146	C	0.603868	0.903602	0.314361
	C147	C	0.357113	0.123013	0.316008
	C148	C	0.659602	0.392335	0.886890
	C149	C	0.660850	0.639019	0.107309
	C150	C	0.300315	0.633720	0.885895
	C151	C	0.300058	0.391823	0.107847
	C152	C	0.866714	0.692931	0.375009
	C153	C	0.088342	0.696388	0.620082
	C154	C	0.869332	0.333564	0.619634
	C155	C	0.089564	0.334476	0.373545
	C156	C	0.869415	0.391080	0.677303
	C157	C	0.088186	0.639067	0.678174
	C158	C	0.866817	0.635277	0.317344
	C159	C	0.090611	0.394090	0.317871
	C160	C	0.358261	0.691713	0.885650
	C161	C	0.604137	0.697822	0.106325
	C162	C	0.602892	0.333189	0.887491
	C163	C	0.357167	0.333530	0.107667
	C164	C	0.661193	0.903551	0.372879
	C165	C	0.658864	0.125077	0.618810
	C166	C	0.297682	0.904481	0.618749
	C167	C	0.299181	0.123219	0.374015
	C168	C	0.856677	0.404019	0.176939
	C169	C	0.103716	0.623750	0.178242
	C170	C	0.104308	0.405307	0.813325
	C171	C	0.854676	0.622947	0.814169
	C172	C	0.159886	0.890891	0.386259
	C173	C	0.160939	0.138949	0.605225
	C174	C	0.796783	0.137457	0.387081
	C175	C	0.798868	0.892654	0.607686
	C176	C	0.368990	0.194729	0.874403
	C177	C	0.589406	0.195740	0.120998
	C178	C	0.369492	0.832140	0.119813
	C179	C	0.588689	0.832795	0.872002
	C180	C	0.370070	0.888990	0.178187
	C181	C	0.589852	0.137344	0.178451
	C182	C	0.368789	0.137122	0.816600
	C183	C	0.589244	0.891896	0.815437
	C184	C	0.854157	0.196279	0.387288
	C185	C	0.104023	0.197601	0.604752
	C186	C	0.102027	0.832953	0.386126
	C187	C	0.855640	0.833954	0.606817
	C188	C	0.161342	0.404397	0.872123
	C189	C	0.161884	0.623400	0.120355
	C190	C	0.798382	0.404373	0.119367
	C191	C	0.797475	0.623478	0.873036
	C192	C	0.382350	0.105375	0.593562
	C193	C	0.575786	0.923067	0.594337
	C194	C	0.574934	0.103596	0.400360
	C195	C	0.383448	0.922483	0.400521
	C196	C	0.575234	0.418024	0.088352
	C197	C	0.576268	0.611189	0.905924
	C198	C	0.384202	0.609795	0.087583
	C199	C	0.383304	0.415744	0.905462
	C200	C	0.070156	0.612183	0.399569
	C201	C	0.887588	0.610035	0.592342
	C202	C	0.069832	0.420230	0.590901
	C203	C	0.887230	0.417150	0.399528
	C204	C	0.882949	0.605543	0.094316
	C205	C	0.076987	0.422298	0.095385
	C206	C	0.075582	0.604006	0.902097
	C207	C	0.883279	0.423774	0.900916
	C208	C	0.074009	0.918072	0.586870
	C209	C	0.074798	0.110206	0.404967
	C210	C	0.883255	0.110792	0.587283
	C211	C	0.881641	0.916781	0.405099
	C212	C	0.570379	0.110117	0.900936
	C213	C	0.388413	0.110015	0.093676
	C214	C	0.570075	0.918848	0.090640
	C215	C	0.386901	0.916124	0.899239
	Zn216	Zn	0.478557	0.014279	0.747346
	Zn217	Zn	0.479564	0.012966	0.246089
	Zn218	Zn	0.729170	0.514582	-0.002634
	Zn219	Zn	0.229997	0.512994	-0.003204
	Zn220	Zn	-0.022000	0.764073	0.496330
	Zn221	Zn	-0.020750	0.264272	0.496314
	Zn222	Zn	-0.020392	0.514553	0.746545
	Zn223	Zn	-0.020896	0.514661	0.247206
	Zn224	Zn	0.479319	0.764061	-0.003654
	Zn225	Zn	0.479569	0.263764	-0.002818
	Zn226	Zn	0.728838	0.013701	0.497017
	Zn227	Zn	0.228511	0.013905	0.496291
	N228	N	0.391883	0.979124	0.676237
	N229	N	0.565583	0.049936	0.676998
	N230	N	0.567009	0.977991	0.315646
	N231	N	0.393119	0.048337	0.316735
	N232	N	0.657898	0.429076	0.961518
	N233	N	0.659230	0.601470	0.032979
	N234	N	0.300796	0.598388	0.961184
	N235	N	0.300484	0.427024	0.032617
	N236	N	0.942363	0.693545	0.410025
	N237	N	0.013826	0.694302	0.582973
	N238	N	0.943946	0.335276	0.582611
	N239	N	0.013741	0.333557	0.408163
	N240	N	0.944016	0.428053	0.675739
	N241	N	0.013614	0.601982	0.676845
	N242	N	0.942711	0.600717	0.317155
	N243	N	0.015374	0.429801	0.318589
	N244	N	0.394378	0.691659	0.960473
	N245	N	0.568030	0.696372	0.031365
	N246	N	0.566962	0.333508	0.962573
	N247	N	0.392388	0.333137	0.032178
	N248	N	0.659655	0.978041	0.409542
	N249	N	0.658392	0.050061	0.583148
	N250	N	0.298277	0.979303	0.583311
	N251	N	0.299828	0.048686	0.410264
	N252	N	0.893037	0.478665	0.176734
	N253	N	0.067342	0.548993	0.177973
	N254	N	0.067367	0.479528	0.815434
	N255	N	0.891391	0.548524	0.815499
	N256	N	0.158475	0.927398	0.460993
	N257	N	0.158802	0.101047	0.531175
	N258	N	0.798848	0.100686	0.461403
	N259	N	0.799431	0.928245	0.532605
	N260	N	0.443927	0.193376	0.910817
	N261	N	0.514581	0.194367	0.084575
	N262	N	0.443866	0.834343	0.082307
	N263	N	0.513648	0.833006	0.908180
	N264	N	0.444742	0.926213	0.176387
	N265	N	0.515258	0.100279	0.176954
	N266	N	0.443575	0.100704	0.817454
	N267	N	0.514193	0.927906	0.816938
	N268	N	0.891231	0.195238	0.461701
	N269	N	0.067256	0.195676	0.530222
	N270	N	0.065009	0.834164	0.460680
	N271	N	0.890754	0.833520	0.531353
	N272	N	0.159185	0.478083	0.910433
	N273	N	0.161065	0.548370	0.084713
	N274	N	0.799040	0.479448	0.083974
	N275	N	0.799080	0.549411	0.910239
	O276	O	0.990290	0.823437	-0.135656
	H277	H	0.972656	0.821373	-0.132093
	H278	H	0.994893	0.814552	-0.130179
	O279	O	0.172172	-0.145205	1.152095
	H280	H	0.164558	-0.134051	1.125490
	H281	H	0.175276	-0.140095	1.150240
	O282	O	0.534476	0.676118	0.373252
	H283	H	0.543381	0.685188	0.389430
	H284	H	0.537757	0.680809	0.388716
	O285	O	0.317866	0.316403	0.704660
	H286	H	0.331001	0.316321	0.673962
	H287	H	0.302484	0.319352	0.719548
	O288	O	0.767080	-0.014437	1.205308
	H289	H	0.778818	0.004551	1.223678
	H290	H	0.765137	0.001626	1.208932
	O291	O	0.279301	0.501735	0.563195
	H292	H	0.287026	0.503765	0.555146
	H293	H	0.269002	0.497014	0.553434
	O294	O	0.160541	-0.148336	-0.024002
	H295	H	0.147258	-0.162052	-0.038294
	H296	H	0.172240	-0.151520	-0.021911
	O297	O	1.002481	-0.012537	0.078662
	H298	H	0.989264	-0.022644	0.068969
	H299	H	1.013951	-0.016093	0.089346
	O300	O	-0.241586	-0.045542	-0.060028
	H301	H	-0.237953	-0.021886	-0.059453
	H302	H	-0.242356	-0.048019	-0.065866
	O303	O	0.007055	-0.032463	0.221074
	H304	H	0.014783	-0.024353	0.213947
	H305	H	-0.008087	-0.065146	0.229278
	O306	O	0.907489	-0.050455	-0.217875
	H307	H	0.914046	-0.047392	-0.215190
	H308	H	0.906358	-0.037665	-0.206753
	O309	O	0.308248	0.494553	0.345706
	H310	H	0.320357	0.503825	0.326158
	H311	H	0.312249	0.493968	0.338401
	O312	O	0.012072	0.229408	0.214752
	H313	H	0.031628	0.245851	0.228016
	H314	H	0.045560	0.238045	0.219233
	O315	O	0.543471	0.330609	0.637275
	H316	H	0.541605	0.337493	0.629162
	H317	H	0.545595	0.339547	0.626277
	O318	O	1.117848	0.862939	-0.083304
	H319	H	1.115656	0.850408	-0.086091
	H320	H	1.122762	0.872973	-0.082439
	O321	O	-0.238322	1.048243	0.781934
	H322	H	-0.232122	1.075432	0.790620
	H323	H	-0.262936	1.057546	0.757114
	O324	O	0.894518	0.086198	1.179217
	H325	H	0.923410	0.094167	1.180903
	H326	H	0.921313	0.076761	1.168754
	O327	O	0.479091	0.588531	0.699259
	H328	H	0.483049	0.592536	0.704911
	H329	H	0.474758	0.592487	0.689417
	O330	O	0.267534	0.610362	0.287423
	H331	H	0.251175	0.638524	0.265411
	H332	H	0.260369	0.607423	0.277605
	O333	O	0.504094	0.312847	0.294686
	H334	H	0.518709	0.309611	0.290398
	H335	H	0.501995	0.295539	0.304006
	O336	O	0.774246	0.221862	0.791025
	H337	H	0.783199	0.235189	0.794869
	H338	H	0.788424	0.221047	0.798970
	O339	O	0.371626	0.467452	0.628499
	H340	H	0.376388	0.461498	0.627261
	H341	H	0.358099	0.464128	0.638045
	O342	O	-0.079368	1.150057	-0.026117
	H343	H	-0.063170	1.157487	-0.032400
	H344	H	-0.080724	1.156252	-0.031718
	O345	O	0.463223	0.642499	0.648007
	H346	H	0.467509	0.628623	0.659308
	H347	H	0.463205	0.651083	0.659650
	O348	O	0.784925	0.818392	0.193185
	H349	H	0.772456	0.819967	0.162215
	H350	H	0.770584	0.851741	0.202545
	O351	O	0.094942	0.170156	1.064580
	H352	H	0.108147	0.149335	1.069200
	H353	H	0.103953	0.170628	1.081842
	O354	O	0.947049	0.229935	0.780165
	H355	H	0.952949	0.241336	0.783923
	H356	H	0.955382	0.233860	0.768382
	O357	O	0.601775	0.440133	0.686327
	H358	H	0.607267	0.439086	0.694422
	H359	H	0.603325	0.435777	0.681116
	O360	O	0.681659	0.308115	0.316207
	H361	H	0.664427	0.337077	0.306858
	H362	H	0.707773	0.292864	0.285917
	O363	O	0.639805	0.554494	0.296432
	H364	H	0.626340	0.557119	0.303672
	H365	H	0.631848	0.563619	0.296659
	O366	O	1.006144	0.152117	0.936883
	H367	H	1.009086	0.153628	0.930939
	H368	H	1.019187	0.156358	0.936505
	O369	O	0.194159	-0.201873	0.786293
	H370	H	0.207902	-0.221122	0.767212
	H371	H	0.190911	-0.186595	0.806933
	O372	O	0.050064	0.918378	1.054184
	H373	H	0.068924	0.928935	1.060633
	H374	H	0.038359	0.915657	1.066348
	O375	O	0.973736	-0.206515	-0.026795
	H376	H	0.973470	-0.210202	-0.005337
	H377	H	0.966280	-0.194921	-0.032395
	O378	O	0.774950	0.063761	1.053746
	H379	H	0.772011	0.074606	1.050508
	H380	H	0.781044	0.060938	1.062091
	O381	O	0.158137	1.143889	-0.129168
	H382	H	0.157653	1.130688	-0.124143
	H383	H	0.138651	1.153273	-0.131336
	O384	O	0.250695	0.239563	-0.398712
	H385	H	0.249702	0.226012	-0.399768
	H386	H	0.259691	0.235310	-0.399840
	O387	O	-0.234867	0.799124	1.020372
	H388	H	-0.240007	0.791543	1.022844
	H389	H	-0.250715	0.798012	1.013016
	O390	O	0.067171	1.021386	0.964593
	H391	H	0.069130	1.031201	0.958083
	H392	H	0.067218	1.020707	0.975212
	O393	O	0.768653	0.222603	-0.031959
	H394	H	0.766870	0.221869	-0.037978
	H395	H	0.766228	0.233520	-0.024287
	O396	O	0.295218	0.698751	0.677076
	H397	H	0.305231	0.678077	0.659877
	H398	H	0.304481	0.691069	0.676160
	O399	O	0.457155	0.492667	0.272723
	H400	H	0.469426	0.480017	0.273751
	H401	H	0.471757	0.489118	0.270539
	O402	O	1.694533	0.298187	0.491255
	H403	H	1.703545	0.286829	0.469806
	H404	H	1.710062	0.282143	0.466294
	O405	O	0.474990	0.613894	0.595215
	H406	H	0.485957	0.621930	0.598120
	H407	H	0.482820	0.611251	0.590868
	O408	O	1.140760	1.013383	0.794753
	H409	H	1.140349	0.990022	0.798233
	H410	H	1.144453	0.999399	0.788406
	O411	O	0.443129	0.570159	0.453521
	H412	H	0.439489	0.580151	0.453969
	H413	H	0.447560	0.576021	0.448912
	O414	O	-0.061710	-0.204873	0.217209
	H415	H	-0.106492	-0.194891	0.211010
	H416	H	-0.072337	-0.238406	0.250604
	O417	O	0.541677	0.673258	0.341861
	H418	H	0.553405	0.677085	0.342548
	H419	H	0.565506	0.685366	0.359121
	O420	O	1.132721	-0.011703	0.927174
	H421	H	1.125586	-0.007862	0.925409
	H422	H	1.130443	-0.018132	0.920951
	O423	O	1.349085	0.716321	0.294539
	H424	H	1.372568	0.722852	0.286360
	H425	H	1.338856	0.729094	0.323206
	O426	O	0.616717	0.579987	0.610643
	H427	H	0.624260	0.591598	0.612160
	H428	H	0.610760	0.568738	0.605263
	O429	O	0.329005	0.334010	0.398944
	H430	H	0.338520	0.342499	0.404613
	H431	H	0.338822	0.349105	0.411719
	O432	O	1.359773	0.273068	0.609498
	H433	H	1.374569	0.282852	0.600395
	H434	H	1.368440	0.256327	0.620548
	O435	O	0.463455	0.452082	0.514578
	H436	H	0.461270	0.444647	0.509304
	H437	H	0.446855	0.456635	0.528464
	O438	O	0.317165	0.462850	0.513479
	H439	H	0.308461	0.474090	0.505790
	H440	H	0.315530	0.461197	0.495233
	O441	O	0.588786	0.542421	0.386548
	H442	H	0.598976	0.549562	0.396864
	H443	H	0.592726	0.545837	0.387071
	O444	O	0.549522	0.393893	0.710495
	H445	H	0.555122	0.387447	0.726285
	H446	H	0.533281	0.394229	0.710322
	O447	O	1.181065	0.238288	1.020947
	H448	H	1.198028	0.250261	1.024168
	H449	H	1.193967	0.237525	1.038502
	O450	O	1.692913	0.732194	0.526164
	H451	H	1.708610	0.743793	0.548292
	H452	H	1.699335	0.737930	0.558099
	O453	O	0.222371	0.262204	0.224116
	H454	H	0.239582	0.253674	0.216628
	H455	H	0.244091	0.282259	0.245345
	O456	O	0.059009	1.040948	1.062998
	H457	H	0.041456	1.042328	1.059018
	H458	H	0.067716	1.053345	1.062912
	O459	O	0.270635	0.721493	0.467844
	H460	H	0.266637	0.725665	0.456636
	H461	H	0.276469	0.738129	0.476882
	O462	O	0.683189	0.721923	0.702345
	H463	H	0.679243	0.699737	0.711248
	H464	H	0.708262	0.731383	0.730824
	O465	O	0.777153	0.220341	0.201376
	H466	H	0.782180	0.203614	0.183519
	H467	H	0.796423	0.217694	0.192913
	O468	O	0.482505	0.585123	0.515103
	H469	H	0.477646	0.585190	0.515578
	H470	H	0.504018	0.583008	0.528233
	O471	O	0.861255	0.816706	-0.196666
	H472	H	0.885769	0.827411	-0.192892
	H473	H	0.872106	0.822052	-0.177501
	O474	O	2.104923	1.085311	1.152175
	H475	H	2.110424	1.082791	1.149165
	H476	H	2.116880	1.079565	1.166694
	O477	O	0.686752	0.455973	0.524508
	H478	H	0.685495	0.437017	0.518433
	H479	H	0.688672	0.444471	0.514422
