data_Molecule from HDF5

_cell_length_a		16.329255
_cell_length_b		16.167684
_cell_length_c		16.208767
_cell_angle_alpha	90.045436
_cell_angle_beta	89.889553
_cell_angle_gamma	90.004607
_symmetry_space_group_name_H-M	'P 1'
_symmetry_Int_Tables_number		1

loop_
	_symmetry_equiv_pos_as_xyz
	x,y,z

loop_
	_atom_site_label
	_atom_site_type_symbol
	_atom_site_fract_x
	_atom_site_fract_y
	_atom_site_fract_z
	H0	H	0.403643	0.834928	0.712972
	H1	H	0.595515	0.165943	0.711238
	H2	H	0.596773	0.835132	0.287714
	H3	H	0.403701	0.165157	0.288111
	H4	H	0.714529	0.400984	0.836223
	H5	H	0.714012	0.599317	0.164106
	H6	H	0.285587	0.599118	0.836344
	H7	H	0.284494	0.400814	0.164259
	H8	H	0.836624	0.713210	0.402785
	H9	H	0.164560	0.713013	0.596709
	H10	H	0.836138	0.286298	0.597477
	H11	H	0.163875	0.285539	0.402022
	H12	H	0.836342	0.401314	0.714281
	H13	H	0.163393	0.597987	0.714177
	H14	H	0.835806	0.596965	0.286316
	H15	H	0.164007	0.401387	0.285184
	H16	H	0.403585	0.712653	0.835206
	H17	H	0.595762	0.712679	0.165409
	H18	H	0.596894	0.287604	0.835142
	H19	H	0.402244	0.287563	0.165037
	H20	H	0.714449	0.835486	0.401308
	H21	H	0.713795	0.164656	0.598425
	H22	H	0.285496	0.835571	0.599634
	H23	H	0.285844	0.164574	0.402160
	H24	H	0.903941	0.334440	0.211689
	H25	H	0.096360	0.665212	0.211674
	H26	H	0.096811	0.334337	0.786735
	H27	H	0.902495	0.664977	0.787591
	H28	H	0.215590	0.899466	0.335838
	H29	H	0.213572	0.098785	0.663958
	H30	H	0.786287	0.098390	0.336257
	H31	H	0.784774	0.900048	0.664231
	H32	H	0.335591	0.212980	0.903572
	H33	H	0.664120	0.213506	0.095943
	H34	H	0.335941	0.788133	0.096857
	H35	H	0.663960	0.787186	0.903711
	H36	H	0.337099	0.903028	0.214464
	H37	H	0.663622	0.098925	0.213847
	H38	H	0.335998	0.098167	0.786689
	H39	H	0.664125	0.903321	0.786722
	H40	H	0.904696	0.211210	0.335092
	H41	H	0.096805	0.212726	0.664494
	H42	H	0.096863	0.787497	0.334867
	H43	H	0.902708	0.786684	0.665027
	H44	H	0.214630	0.335305	0.901025
	H45	H	0.213086	0.664980	0.098504
	H46	H	0.785612	0.335280	0.098620
	H47	H	0.785824	0.664046	0.901502
	H48	H	0.406240	0.117490	0.592125
	H49	H	0.598186	0.879696	0.598966
	H50	H	0.587511	0.116480	0.404107
	H51	H	0.408281	0.884542	0.412208
	H52	H	0.599092	0.408038	0.120006
	H53	H	0.593227	0.588829	0.883917
	H54	H	0.388795	0.591977	0.122398
	H55	H	0.401882	0.417353	0.884363
	H56	H	0.116589	0.593963	0.406642
	H57	H	0.887447	0.587124	0.588293
	H58	H	0.116127	0.407397	0.591440
	H59	H	0.880790	0.399888	0.402943
	H60	H	0.115884	0.408129	0.594122
	H61	H	0.881529	0.591366	0.601718
	H62	H	0.116820	0.592204	0.405107
	H63	H	0.884983	0.405532	0.410696
	H64	H	0.413718	0.580657	0.111883
	H65	H	0.590793	0.595708	0.882949
	H66	H	0.590260	0.412207	0.115452
	H67	H	0.415755	0.405543	0.884859
	H68	H	0.594989	0.116379	0.414825
	H69	H	0.588283	0.883250	0.594076
	H70	H	0.404452	0.118580	0.593439
	H71	H	0.402786	0.880762	0.407038
	H72	H	0.906477	0.618039	0.092475
	H73	H	0.100003	0.379893	0.093753
	H74	H	0.087002	0.611982	0.917589
	H75	H	0.892774	0.376919	0.904152
	H76	H	0.101386	0.908329	0.619493
	H77	H	0.087700	0.105047	0.380162
	H78	H	0.908836	0.112837	0.623010
	H79	H	0.910088	0.905279	0.382920
	H80	H	0.614737	0.090225	0.908564
	H81	H	0.378440	0.096266	0.109115
	H82	H	0.617439	0.909383	0.096354
	H83	H	0.387509	0.916221	0.911770
	H84	H	0.619043	0.903052	0.095568
	H85	H	0.382496	0.105765	0.084878
	H86	H	0.618163	0.093368	0.900090
	H87	H	0.379640	0.906412	0.893701
	H88	H	0.887314	0.084402	0.620174
	H89	H	0.108421	0.090942	0.378454
	H90	H	0.089332	0.913643	0.613370
	H91	H	0.903039	0.904650	0.381417
	H92	H	0.104955	0.620936	0.907226
	H93	H	0.090229	0.381217	0.097945
	H94	H	0.904110	0.618123	0.093301
	H95	H	0.917048	0.382220	0.897633
	H96	H	0.406379	0.117997	0.594225
	H97	H	0.597567	0.881896	0.587321
	H98	H	0.600383	0.120905	0.404032
	H99	H	0.409985	0.881879	0.403926
	H100	H	0.590262	0.402298	0.118698
	H101	H	0.597800	0.594272	0.880570
	H102	H	0.412324	0.608623	0.120621
	H103	H	0.400041	0.399751	0.878676
	H104	H	0.117219	0.594009	0.403746
	H105	H	0.882114	0.601263	0.590268
	H106	H	0.117058	0.405146	0.593301
	H107	H	0.883965	0.409939	0.401121
	H108	H	0.905817	0.617937	0.094827
	H109	H	0.091782	0.383997	0.087486
	H110	H	0.086038	0.618337	0.896280
	H111	H	0.909349	0.387230	0.921739
	H112	H	0.090007	0.899084	0.619023
	H113	H	0.087200	0.080549	0.387407
	H114	H	0.922337	0.081912	0.610765
	H115	H	0.906081	0.910998	0.384047
	H116	H	0.616814	0.099631	0.906736
	H117	H	0.388795	0.080483	0.090156
	H118	H	0.616550	0.906503	0.090729
	H119	H	0.381275	0.895616	0.911943
	C120	C	0.378557	0.008734	0.621438
	C121	C	0.621876	0.991125	0.621333
	C122	C	0.622121	0.008765	0.379147
	C123	C	0.378866	0.991242	0.379142
	C124	C	0.621100	0.379052	0.008910
	C125	C	0.621561	0.621664	0.991439
	C126	C	0.377843	0.621670	0.008824
	C127	C	0.377735	0.378786	0.991474
	C128	C	0.008576	0.621517	0.377338
	C129	C	0.992014	0.621608	0.621446
	C130	C	0.008098	0.378354	0.621389
	C131	C	0.991739	0.377182	0.376977
	C132	C	0.878200	0.508631	0.121211
	C133	C	0.121083	0.491111	0.120745
	C134	C	0.121247	0.508404	0.878304
	C135	C	0.878201	0.491080	0.879134
	C136	C	0.121501	0.878421	0.508407
	C137	C	0.121942	0.120958	0.491087
	C138	C	0.878569	0.121169	0.508970
	C139	C	0.878462	0.878337	0.491610
	C140	C	0.508089	0.122234	0.877818
	C141	C	0.491830	0.122467	0.122182
	C142	C	0.508953	0.878729	0.121883
	C143	C	0.491478	0.878242	0.878187
	C144	C	0.382542	0.884057	0.675756
	C145	C	0.617364	0.116239	0.674661
	C146	C	0.618291	0.884454	0.324808
	C147	C	0.382516	0.115939	0.325192
	C148	C	0.676100	0.381421	0.884849
	C149	C	0.675948	0.619572	0.115385
	C150	C	0.323666	0.619170	0.885087
	C151	C	0.323067	0.381251	0.115497
	C152	C	0.885129	0.675597	0.381472
	C153	C	0.115280	0.676317	0.618430
	C154	C	0.884981	0.323722	0.618129
	C155	C	0.114989	0.323040	0.380777
	C156	C	0.884970	0.380985	0.676140
	C157	C	0.114873	0.618702	0.676305
	C158	C	0.884974	0.617688	0.323859
	C159	C	0.115141	0.380684	0.322791
	C160	C	0.382294	0.675570	0.884723
	C161	C	0.617550	0.675978	0.115827
	C162	C	0.617596	0.325230	0.884469
	C163	C	0.381581	0.325021	0.115873
	C164	C	0.676239	0.884536	0.381719
	C165	C	0.675879	0.115609	0.618623
	C166	C	0.323909	0.884505	0.619663
	C167	C	0.324152	0.115554	0.381911
	C168	C	0.882437	0.384008	0.174858
	C169	C	0.117315	0.615906	0.174681
	C170	C	0.118065	0.383685	0.823964
	C171	C	0.881558	0.615429	0.824586
	C172	C	0.176936	0.880005	0.384812
	C173	C	0.176235	0.119168	0.614819
	C174	C	0.824279	0.118515	0.385030
	C175	C	0.823586	0.880460	0.615389
	C176	C	0.384802	0.176156	0.882007
	C177	C	0.615062	0.176495	0.117716
	C178	C	0.385137	0.825368	0.118172
	C179	C	0.615043	0.824472	0.882288
	C180	C	0.385604	0.882169	0.176711
	C181	C	0.614844	0.119572	0.176319
	C182	C	0.384979	0.118961	0.823862
	C183	C	0.615151	0.881899	0.824156
	C184	C	0.883185	0.174362	0.384444
	C185	C	0.118048	0.175776	0.615013
	C186	C	0.118095	0.824143	0.384238
	C187	C	0.882016	0.823909	0.615727
	C188	C	0.176233	0.384121	0.880721
	C189	C	0.175385	0.615671	0.118566
	C190	C	0.823520	0.384326	0.118886
	C191	C	0.823480	0.615038	0.881233
	C192	C	0.399487	0.095530	0.599649
	C193	C	0.600887	0.904122	0.599916
	C194	C	0.600655	0.095602	0.401182
	C195	C	0.400638	0.904665	0.401030
	C196	C	0.599668	0.400921	0.095616
	C197	C	0.600340	0.599499	0.904892
	C198	C	0.398767	0.600101	0.095805
	C199	C	0.399453	0.400960	0.905050
	C200	C	0.094788	0.599842	0.398739
	C201	C	0.905865	0.599774	0.599838
	C202	C	0.094193	0.400544	0.599564
	C203	C	0.905633	0.398740	0.398471
	C204	C	0.899314	0.595709	0.099779
	C205	C	0.100197	0.404275	0.099339
	C206	C	0.099392	0.594750	0.900547
	C207	C	0.899903	0.404256	0.901287
	C208	C	0.099974	0.900503	0.595106
	C209	C	0.100742	0.098725	0.404327
	C210	C	0.899784	0.099409	0.595669
	C211	C	0.900034	0.900297	0.404919
	C212	C	0.594315	0.100771	0.898907
	C213	C	0.405575	0.100671	0.101159
	C214	C	0.595464	0.899990	0.100618
	C215	C	0.405197	0.899624	0.899365
	Zn216	Zn	0.500095	0.000249	0.749096
	Zn217	Zn	0.500780	0.000442	0.250887
	Zn218	Zn	0.749791	0.500022	0.000422
	Zn219	Zn	0.249340	0.500214	0.000021
	Zn220	Zn	0.000090	0.750106	0.499764
	Zn221	Zn	0.000017	0.249159	0.499796
	Zn222	Zn	-0.000633	0.499752	0.750733
	Zn223	Zn	0.000233	0.499824	0.248608
	Zn224	Zn	0.500065	0.749729	0.000465
	Zn225	Zn	0.499641	0.251036	-0.000054
	Zn226	Zn	0.750391	-0.000059	0.500285
	Zn227	Zn	0.250105	-0.000319	0.500228
	N228	N	0.415955	0.962239	0.676916
	N229	N	0.584383	0.037822	0.676428
	N230	N	0.585352	0.962738	0.323233
	N231	N	0.416089	0.037827	0.323728
	N232	N	0.678629	0.414007	0.963309
	N233	N	0.678653	0.586468	0.037020
	N234	N	0.320786	0.586495	0.963457
	N235	N	0.320620	0.414133	0.037186
	N236	N	0.962976	0.678162	0.413936
	N237	N	0.037929	0.677891	0.584794
	N238	N	0.962581	0.322046	0.584708
	N239	N	0.037309	0.320954	0.413890
	N240	N	0.962593	0.414166	0.678348
	N241	N	0.037129	0.585640	0.678545
	N242	N	0.962781	0.584826	0.321310
	N243	N	0.037450	0.413788	0.320412
	N244	N	0.415215	0.677216	0.962782
	N245	N	0.584534	0.677417	0.037804
	N246	N	0.584167	0.323655	0.962505
	N247	N	0.414736	0.323313	0.037711
	N248	N	0.678941	0.963102	0.414527
	N249	N	0.678845	0.036918	0.586274
	N250	N	0.321245	0.962882	0.586639
	N251	N	0.321698	0.037120	0.414769
	N252	N	0.915522	0.462198	0.176378
	N253	N	0.084348	0.537570	0.176183
	N254	N	0.084513	0.461780	0.822383
	N255	N	0.914856	0.537184	0.823316
	N256	N	0.179304	0.912877	0.463037
	N257	N	0.178699	0.085730	0.536697
	N258	N	0.821288	0.086212	0.463576
	N259	N	0.821324	0.913635	0.537233
	N260	N	0.462389	0.178128	0.914932
	N261	N	0.537454	0.178245	0.084811
	N262	N	0.462690	0.823128	0.084834
	N263	N	0.537285	0.822305	0.915258
	N264	N	0.463693	0.914660	0.178943
	N265	N	0.537197	0.086496	0.178976
	N266	N	0.462818	0.086262	0.821119
	N267	N	0.537305	0.914803	0.821451
	N268	N	0.916088	0.176087	0.462473
	N269	N	0.085052	0.176995	0.536944
	N270	N	0.084168	0.823246	0.462087
	N271	N	0.915421	0.822546	0.537645
	N272	N	0.178288	0.462448	0.914057
	N273	N	0.177905	0.537167	0.085619
	N274	N	0.820998	0.462884	0.086122
	N275	N	0.821584	0.536872	0.914717
