data_Molecule from HDF5

_cell_length_a		16.253005
_cell_length_b		16.238295
_cell_length_c		16.225173
_cell_angle_alpha	89.956833
_cell_angle_beta	89.778312
_cell_angle_gamma	90.087584
_symmetry_space_group_name_H-M	'P 1'
_symmetry_Int_Tables_number		1

loop_
	_symmetry_equiv_pos_as_xyz
	x,y,z

loop_
	_atom_site_label
	_atom_site_type_symbol
	_atom_site_fract_x
	_atom_site_fract_y
	_atom_site_fract_z
	H0	H	0.398441	0.833950	0.708855
	H1	H	0.594689	0.162618	0.708467
	H2	H	0.595568	0.834960	0.280807
	H3	H	0.400713	0.162770	0.281052
	H4	H	0.710963	0.400793	0.830982
	H5	H	0.709072	0.597597	0.159189
	H6	H	0.283471	0.597902	0.830449
	H7	H	0.280575	0.399844	0.158688
	H8	H	0.832812	0.712729	0.397493
	H9	H	0.161159	0.713770	0.591748
	H10	H	0.832785	0.283942	0.594163
	H11	H	0.161053	0.285592	0.396311
	H12	H	0.831516	0.401136	0.708983
	H13	H	0.160905	0.597854	0.707846
	H14	H	0.831468	0.595608	0.283598
	H15	H	0.161184	0.401981	0.280874
	H16	H	0.399982	0.711821	0.830409
	H17	H	0.593899	0.712690	0.158583
	H18	H	0.594253	0.286039	0.831173
	H19	H	0.397402	0.285225	0.159687
	H20	H	0.712413	0.835593	0.395578
	H21	H	0.709915	0.163681	0.592279
	H22	H	0.280857	0.834869	0.595196
	H23	H	0.283145	0.162724	0.395309
	H24	H	0.896975	0.335203	0.210223
	H25	H	0.092998	0.663510	0.207644
	H26	H	0.094469	0.334860	0.780717
	H27	H	0.899188	0.663244	0.781182
	H28	H	0.211577	0.901257	0.330682
	H29	H	0.210834	0.098042	0.659043
	H30	H	0.783270	0.096898	0.330822
	H31	H	0.781878	0.900559	0.658783
	H32	H	0.331413	0.212603	0.898045
	H33	H	0.660381	0.214342	0.093120
	H34	H	0.333503	0.784285	0.093785
	H35	H	0.660742	0.785435	0.896101
	H36	H	0.332880	0.900461	0.209523
	H37	H	0.661151	0.096478	0.206737
	H38	H	0.331687	0.096799	0.781863
	H39	H	0.661079	0.902436	0.781134
	H40	H	0.898391	0.212567	0.330429
	H41	H	0.093580	0.212697	0.659290
	H42	H	0.096122	0.786297	0.329861
	H43	H	0.897695	0.784334	0.658832
	H44	H	0.209856	0.335222	0.896870
	H45	H	0.208957	0.663959	0.092112
	H46	H	0.782387	0.335033	0.093543
	H47	H	0.782978	0.663234	0.896570
	H48	H	0.395720	0.117675	0.588923
	H49	H	0.586486	0.882947	0.587137
	H50	H	0.579358	0.113216	0.401881
	H51	H	0.409187	0.882882	0.400815
	H52	H	0.590078	0.403206	0.113476
	H53	H	0.594270	0.589715	0.876957
	H54	H	0.401180	0.588359	0.111287
	H55	H	0.402879	0.409417	0.878539
	H56	H	0.113076	0.594783	0.403501
	H57	H	0.878242	0.588064	0.598009
	H58	H	0.112842	0.403438	0.583758
	H59	H	0.878132	0.400751	0.402051
	H60	H	0.110819	0.410769	0.585361
	H61	H	0.876704	0.603051	0.587378
	H62	H	0.112965	0.588728	0.400416
	H63	H	0.880778	0.406832	0.405748
	H64	H	0.405742	0.591942	0.111742
	H65	H	0.587239	0.590881	0.878703
	H66	H	0.591764	0.408109	0.112873
	H67	H	0.406617	0.403818	0.878027
	H68	H	0.597831	0.116061	0.409707
	H69	H	0.592107	0.881900	0.584834
	H70	H	0.408485	0.115625	0.594019
	H71	H	0.402269	0.882272	0.407701
	H72	H	0.902134	0.616709	0.089986
	H73	H	0.088128	0.383606	0.081192
	H74	H	0.085164	0.612571	0.908734
	H75	H	0.910481	0.383738	0.903522
	H76	H	0.090921	0.903866	0.613505
	H77	H	0.079933	0.085691	0.383068
	H78	H	0.907233	0.093066	0.611525
	H79	H	0.894942	0.905404	0.374382
	H80	H	0.612894	0.093585	0.900066
	H81	H	0.378239	0.094801	0.090892
	H82	H	0.612482	0.906777	0.083867
	H83	H	0.380156	0.912966	0.897723
	H84	H	0.614723	0.908356	0.090367
	H85	H	0.379747	0.092776	0.084286
	H86	H	0.612507	0.093757	0.902202
	H87	H	0.375977	0.897680	0.897153
	H88	H	0.899996	0.094659	0.613902
	H89	H	0.090428	0.107289	0.373518
	H90	H	0.089758	0.909456	0.611017
	H91	H	0.907353	0.914265	0.380777
	H92	H	0.100110	0.619844	0.901515
	H93	H	0.096275	0.379570	0.089376
	H94	H	0.903334	0.616348	0.088584
	H95	H	0.898111	0.382056	0.908057
	H96	H	0.405894	0.112994	0.580097
	H97	H	0.591018	0.879917	0.590353
	H98	H	0.594634	0.120279	0.390114
	H99	H	0.400481	0.879913	0.398825
	H100	H	0.586110	0.407262	0.111943
	H101	H	0.591652	0.596661	0.875352
	H102	H	0.399293	0.594274	0.113576
	H103	H	0.400744	0.403531	0.876579
	H104	H	0.115444	0.594346	0.397373
	H105	H	0.884226	0.587021	0.580164
	H106	H	0.114318	0.405971	0.591018
	H107	H	0.879090	0.406992	0.397841
	H108	H	0.900783	0.617283	0.088906
	H109	H	0.084788	0.381441	0.093017
	H110	H	0.085850	0.617938	0.891545
	H111	H	0.900739	0.380099	0.895477
	H112	H	0.085224	0.905475	0.610624
	H113	H	0.104457	0.086341	0.375118
	H114	H	0.901608	0.087839	0.611950
	H115	H	0.909468	0.898454	0.376460
	H116	H	0.612333	0.091989	0.901312
	H117	H	0.380488	0.088561	0.089734
	H118	H	0.615542	0.901643	0.088224
	H119	H	0.382069	0.903428	0.910305
	C120	C	0.374582	0.006907	0.616889
	C121	C	0.618001	0.990314	0.615806
	C122	C	0.618956	0.008001	0.372551
	C123	C	0.375731	0.990286	0.373650
	C124	C	0.617653	0.378044	0.004190
	C125	C	0.618298	0.620606	0.985870
	C126	C	0.374603	0.620370	0.003418
	C127	C	0.374569	0.377569	0.986709
	C128	C	0.005094	0.620813	0.372886
	C129	C	0.988261	0.621194	0.616309
	C130	C	0.004597	0.377853	0.616069
	C131	C	0.988122	0.377195	0.373111
	C132	C	0.874103	0.507945	0.117315
	C133	C	0.117547	0.490454	0.115937
	C134	C	0.118389	0.508129	0.872169
	C135	C	0.874889	0.490776	0.873749
	C136	C	0.118229	0.877886	0.503064
	C137	C	0.119108	0.121357	0.486015
	C138	C	0.875391	0.119873	0.503583
	C139	C	0.875173	0.877544	0.486094
	C140	C	0.504263	0.121176	0.873130
	C141	C	0.488119	0.120410	0.116122
	C142	C	0.505648	0.877104	0.116598
	C143	C	0.488091	0.877594	0.873291
	C144	C	0.377589	0.883362	0.671850
	C145	C	0.615447	0.113908	0.670763
	C146	C	0.616661	0.884218	0.317741
	C147	C	0.379420	0.113926	0.318741
	C148	C	0.672931	0.380427	0.880160
	C149	C	0.671675	0.617781	0.110115
	C150	C	0.320784	0.618121	0.879521
	C151	C	0.319144	0.380163	0.110077
	C152	C	0.881503	0.675012	0.376619
	C153	C	0.112033	0.676078	0.612624
	C154	C	0.881247	0.322550	0.614000
	C155	C	0.112002	0.322919	0.375644
	C156	C	0.880786	0.380472	0.671277
	C157	C	0.111733	0.618612	0.670492
	C158	C	0.880979	0.616978	0.319867
	C159	C	0.112087	0.380791	0.318433
	C160	C	0.378651	0.674956	0.879698
	C161	C	0.614738	0.675222	0.109740
	C162	C	0.614982	0.323484	0.880064
	C163	C	0.376782	0.322749	0.110520
	C164	C	0.674414	0.884430	0.375080
	C165	C	0.672522	0.114359	0.612795
	C166	C	0.319393	0.883550	0.614937
	C167	C	0.321235	0.113827	0.375803
	C168	C	0.876662	0.384192	0.172238
	C169	C	0.113620	0.614553	0.169858
	C170	C	0.115014	0.384101	0.818020
	C171	C	0.878324	0.614342	0.818906
	C172	C	0.173689	0.880815	0.379567
	C173	C	0.173139	0.118587	0.609879
	C174	C	0.820993	0.117383	0.379729
	C175	C	0.819726	0.879805	0.609658
	C176	C	0.380599	0.175383	0.876823
	C177	C	0.611626	0.175689	0.113021
	C178	C	0.382182	0.822252	0.114192
	C179	C	0.611803	0.822869	0.875152
	C180	C	0.382230	0.879705	0.171987
	C181	C	0.611792	0.117827	0.169963
	C182	C	0.380700	0.117809	0.819089
	C183	C	0.611928	0.881225	0.818420
	C184	C	0.878175	0.174645	0.379567
	C185	C	0.114914	0.175460	0.609979
	C186	C	0.116205	0.823860	0.379044
	C187	C	0.877542	0.822338	0.609799
	C188	C	0.172675	0.384314	0.875462
	C189	C	0.171622	0.614680	0.112898
	C190	C	0.819211	0.384244	0.114842
	C191	C	0.820663	0.614253	0.876396
	C192	C	0.396859	0.093216	0.594414
	C193	C	0.596242	0.904017	0.594000
	C194	C	0.597035	0.094133	0.394261
	C195	C	0.397461	0.904006	0.396017
	C196	C	0.595771	0.399696	0.090247
	C197	C	0.597273	0.598861	0.899303
	C198	C	0.395756	0.598056	0.090162
	C199	C	0.396868	0.399211	0.900067
	C200	C	0.091589	0.599167	0.394136
	C201	C	0.902120	0.599315	0.594798
	C202	C	0.090410	0.400197	0.593458
	C203	C	0.901670	0.398653	0.395314
	C204	C	0.895871	0.594439	0.095657
	C205	C	0.096117	0.403891	0.094149
	C206	C	0.096921	0.594597	0.894133
	C207	C	0.896543	0.404293	0.896002
	C208	C	0.095528	0.899806	0.589505
	C209	C	0.097901	0.099478	0.399531
	C210	C	0.896736	0.098299	0.590093
	C211	C	0.897557	0.899401	0.399518
	C212	C	0.590361	0.099590	0.894751
	C213	C	0.401643	0.098520	0.094510
	C214	C	0.592123	0.899156	0.094119
	C215	C	0.401718	0.898589	0.895352
	Zn216	Zn	0.496526	-0.000808	0.744295
	Zn217	Zn	0.497194	-0.001083	0.244673
	Zn218	Zn	0.746180	0.499199	-0.004715
	Zn219	Zn	0.246163	0.499078	-0.005383
	Zn220	Zn	-0.002785	0.749573	0.493850
	Zn221	Zn	-0.003934	0.248659	0.494530
	Zn222	Zn	-0.003663	0.498898	0.744954
	Zn223	Zn	-0.003630	0.499023	0.244903
	Zn224	Zn	0.496605	0.748655	-0.005338
	Zn225	Zn	0.496306	0.249496	-0.004546
	Zn226	Zn	0.746632	-0.000780	0.494495
	Zn227	Zn	0.246596	-0.001426	0.495086
	N228	N	0.411341	0.961382	0.672987
	N229	N	0.581951	0.036194	0.672482
	N230	N	0.582934	0.961895	0.315973
	N231	N	0.412597	0.036167	0.317402
	N232	N	0.674603	0.413628	0.958137
	N233	N	0.673948	0.584517	0.032153
	N234	N	0.318225	0.584879	0.957622
	N235	N	0.317416	0.413062	0.031901
	N236	N	0.959604	0.677326	0.409125
	N237	N	0.034135	0.677970	0.579686
	N238	N	0.959098	0.320558	0.580568
	N239	N	0.033916	0.320520	0.409035
	N240	N	0.958656	0.414171	0.672633
	N241	N	0.034113	0.585058	0.672733
	N242	N	0.958882	0.583960	0.317504
	N243	N	0.034075	0.413593	0.316653
	N244	N	0.411385	0.676434	0.957761
	N245	N	0.582237	0.677162	0.031552
	N246	N	0.581180	0.321830	0.957947
	N247	N	0.410646	0.321220	0.032514
	N248	N	0.675920	0.962295	0.408481
	N249	N	0.674016	0.036436	0.579152
	N250	N	0.317498	0.961360	0.581547
	N251	N	0.318811	0.035840	0.409230
	N252	N	0.910286	0.462050	0.173876
	N253	N	0.080894	0.536361	0.171974
	N254	N	0.081998	0.462103	0.816114
	N255	N	0.911285	0.536383	0.817056
	N256	N	0.174897	0.913590	0.457814
	N257	N	0.175770	0.085516	0.531709
	N258	N	0.819288	0.084013	0.457678
	N259	N	0.818269	0.913450	0.531932
	N260	N	0.458481	0.177762	0.909583
	N261	N	0.533566	0.177526	0.080317
	N262	N	0.459945	0.820571	0.080560
	N263	N	0.533887	0.820280	0.908499
	N264	N	0.460155	0.913154	0.173287
	N265	N	0.534155	0.083967	0.171799
	N266	N	0.458613	0.084739	0.816780
	N267	N	0.534112	0.914369	0.817158
	N268	N	0.911170	0.176525	0.457653
	N269	N	0.082297	0.177516	0.531914
	N270	N	0.082262	0.821833	0.456797
	N271	N	0.911081	0.820696	0.531776
	N272	N	0.174740	0.462258	0.908555
	N273	N	0.173802	0.536585	0.079591
	N274	N	0.817590	0.462082	0.081368
	N275	N	0.818756	0.536343	0.909845
	O276	O	0.789588	-0.232732	1.251674
	H277	H	0.790967	-0.234377	1.254871
	H278	H	0.792835	-0.232884	1.255098
	O279	O	0.397528	0.429844	0.566389
	H280	H	0.395198	0.431762	0.568426
	H281	H	0.393039	0.430900	0.569916
	O282	O	1.416912	1.438700	0.564016
	H283	H	1.411630	1.432667	0.572862
	H284	H	1.411890	1.437515	0.560961
	O285	O	0.432114	0.451905	0.557607
	H286	H	0.425865	0.451340	0.553982
	H287	H	0.436840	0.445722	0.556636
