data_Molecule from HDF5

_cell_length_a		16.594042
_cell_length_b		16.616957
_cell_length_c		16.643398
_cell_angle_alpha	89.964721
_cell_angle_beta	90.045928
_cell_angle_gamma	89.998165
_symmetry_space_group_name_H-M	'P 1'
_symmetry_Int_Tables_number		1

loop_
	_symmetry_equiv_pos_as_xyz
	x,y,z

loop_
	_atom_site_label
	_atom_site_type_symbol
	_atom_site_fract_x
	_atom_site_fract_y
	_atom_site_fract_z
	H0	H	0.395580	0.831546	0.705834
	H1	H	0.607018	0.142998	0.703807
	H2	H	0.612623	0.835135	0.258069
	H3	H	0.392812	0.140820	0.258387
	H4	H	0.725394	0.381023	0.829367
	H5	H	0.724793	0.592499	0.138476
	H6	H	0.277559	0.593970	0.831147
	H7	H	0.276072	0.375380	0.136884
	H8	H	0.849248	0.711258	0.374957
	H9	H	0.156621	0.709388	0.589945
	H10	H	0.846345	0.265383	0.589308
	H11	H	0.156453	0.262474	0.375290
	H12	H	0.847446	0.378937	0.706780
	H13	H	0.155819	0.595576	0.707878
	H14	H	0.848564	0.595175	0.259766
	H15	H	0.156320	0.378164	0.260026
	H16	H	0.393919	0.710784	0.831260
	H17	H	0.608809	0.709598	0.137934
	H18	H	0.610740	0.263461	0.829069
	H19	H	0.392532	0.259851	0.136128
	H20	H	0.727560	0.834593	0.375085
	H21	H	0.720891	0.144333	0.586148
	H22	H	0.279424	0.832012	0.590223
	H23	H	0.278523	0.142002	0.375853
	H24	H	0.896797	0.331682	0.206352
	H25	H	0.111502	0.639915	0.208409
	H26	H	0.108281	0.332082	0.761129
	H27	H	0.895153	0.641294	0.760935
	H28	H	0.224322	0.881456	0.329436
	H29	H	0.223267	0.091783	0.639732
	H30	H	0.779762	0.093915	0.329696
	H31	H	0.781154	0.882219	0.638777
	H32	H	0.347483	0.210008	0.876283
	H33	H	0.656508	0.209849	0.090490
	H34	H	0.348177	0.762474	0.091616
	H35	H	0.658587	0.766477	0.880575
	H36	H	0.347985	0.878696	0.207719
	H37	H	0.655549	0.096016	0.208647
	H38	H	0.346574	0.092379	0.761387
	H39	H	0.658520	0.881475	0.762253
	H40	H	0.897046	0.208650	0.329269
	H41	H	0.109268	0.210024	0.638998
	H42	H	0.106982	0.766442	0.328708
	H43	H	0.896675	0.765777	0.638566
	H44	H	0.223624	0.331508	0.877890
	H45	H	0.225317	0.640514	0.090495
	H46	H	0.780906	0.331669	0.089246
	H47	H	0.781198	0.642471	0.879532
	H48	H	0.413991	0.098033	0.571808
	H49	H	0.587837	0.878413	0.568755
	H50	H	0.588343	0.095370	0.402655
	H51	H	0.414544	0.877074	0.395661
	H52	H	0.591693	0.392425	0.096919
	H53	H	0.593389	0.572082	0.872726
	H54	H	0.415585	0.571399	0.093645
	H55	H	0.418813	0.400638	0.875452
	H56	H	0.112538	0.574783	0.399323
	H57	H	0.888379	0.581033	0.570472
	H58	H	0.114304	0.398058	0.574379
	H59	H	0.890460	0.393855	0.399303
	H60	H	0.113336	0.397966	0.570702
	H61	H	0.893525	0.571589	0.566492
	H62	H	0.111605	0.571896	0.395545
	H63	H	0.894780	0.404790	0.398270
	H64	H	0.417867	0.574539	0.093676
	H65	H	0.586854	0.578609	0.872960
	H66	H	0.594946	0.403663	0.093749
	H67	H	0.413816	0.395705	0.871759
	H68	H	0.595289	0.100947	0.394670
	H69	H	0.597561	0.874134	0.571108
	H70	H	0.412212	0.098857	0.573537
	H71	H	0.417856	0.877079	0.395958
	H72	H	0.916537	0.596213	0.069513
	H73	H	0.091273	0.374362	0.074052
	H74	H	0.090547	0.597040	0.899497
	H75	H	0.913059	0.373587	0.892944
	H76	H	0.089009	0.895756	0.596056
	H77	H	0.088571	0.072945	0.375013
	H78	H	0.914615	0.074991	0.595840
	H79	H	0.919500	0.905938	0.377346
	H80	H	0.613609	0.076492	0.896578
	H81	H	0.392083	0.068288	0.074358
	H82	H	0.611181	0.903091	0.069683
	H83	H	0.389447	0.891602	0.896813
	H84	H	0.614518	0.898893	0.075560
	H85	H	0.389371	0.078827	0.069248
	H86	H	0.612647	0.072955	0.893175
	H87	H	0.395280	0.903542	0.899646
	H88	H	0.914355	0.078117	0.596163
	H89	H	0.088312	0.078320	0.372781
	H90	H	0.094341	0.898073	0.596599
	H91	H	0.918567	0.891348	0.371117
	H92	H	0.092187	0.598430	0.893824
	H93	H	0.084799	0.376675	0.073409
	H94	H	0.909398	0.599915	0.071268
	H95	H	0.917601	0.377190	0.895751
	H96	H	0.414532	0.097836	0.573938
	H97	H	0.589570	0.873886	0.578069
	H98	H	0.583400	0.098674	0.391673
	H99	H	0.416125	0.878815	0.398453
	H100	H	0.584073	0.399614	0.091922
	H101	H	0.594911	0.579947	0.869627
	H102	H	0.414174	0.574781	0.094962
	H103	H	0.411526	0.402743	0.873935
	H104	H	0.114815	0.576009	0.395565
	H105	H	0.890016	0.571700	0.577091
	H106	H	0.112769	0.400985	0.572603
	H107	H	0.888957	0.399618	0.389102
	H108	H	0.915632	0.599670	0.077327
	H109	H	0.088998	0.377088	0.067668
	H110	H	0.085710	0.596973	0.895149
	H111	H	0.911667	0.376417	0.898242
	H112	H	0.090713	0.901437	0.593951
	H113	H	0.093031	0.075171	0.372806
	H114	H	0.911942	0.076557	0.595572
	H115	H	0.905895	0.900757	0.370479
	H116	H	0.614941	0.077257	0.891900
	H117	H	0.396068	0.070626	0.062767
	H118	H	0.613016	0.895365	0.068510
	H119	H	0.389301	0.901402	0.887495
	C120	C	0.381215	-0.004726	0.605241
	C121	C	0.623648	0.978641	0.604506
	C122	C	0.623615	-0.003215	0.362329
	C123	C	0.381376	0.979354	0.362236
	C124	C	0.623585	0.365933	-0.008080
	C125	C	0.624273	0.608986	0.974511
	C126	C	0.381385	0.607618	-0.007254
	C127	C	0.380938	0.364848	0.975110
	C128	C	0.011392	0.608279	0.362380
	C129	C	0.993205	0.608115	0.604775
	C130	C	0.010699	0.365985	0.605112
	C131	C	0.993801	0.366048	0.362614
	C132	C	0.881127	0.495743	0.105270
	C133	C	0.123420	0.477805	0.105545
	C134	C	0.122770	0.495243	0.862892
	C135	C	0.881001	0.478184	0.862972
	C136	C	0.123680	0.866082	0.492699
	C137	C	0.123566	0.108497	0.475749
	C138	C	0.881149	0.108819	0.493265
	C139	C	0.881241	0.866318	0.475081
	C140	C	0.510907	0.108310	0.861371
	C141	C	0.493947	0.107386	0.103434
	C142	C	0.510784	0.865620	0.104875
	C143	C	0.494325	0.866408	0.862841
	C144	C	0.378391	0.878138	0.665339
	C145	C	0.624961	0.096252	0.663683
	C146	C	0.629388	0.881152	0.299295
	C147	C	0.376355	0.094901	0.299755
	C148	C	0.685136	0.362932	0.875685
	C149	C	0.684452	0.611071	0.091779
	C150	C	0.318838	0.611680	0.877392
	C151	C	0.317932	0.359007	0.090674
	C152	C	0.895489	0.670432	0.357563
	C153	C	0.109896	0.669359	0.608177
	C154	C	0.893597	0.305139	0.607665
	C155	C	0.109942	0.303594	0.358275
	C156	C	0.893864	0.362211	0.665841
	C157	C	0.109639	0.612326	0.666400
	C158	C	0.895294	0.612518	0.300263
	C159	C	0.110005	0.361466	0.300903
	C160	C	0.376447	0.669830	0.877183
	C161	C	0.626916	0.669144	0.091564
	C162	C	0.627815	0.304645	0.875501
	C163	C	0.375574	0.301177	0.090311
	C164	C	0.686540	0.881127	0.357547
	C165	C	0.681929	0.096815	0.605231
	C166	C	0.320570	0.878401	0.607830
	C167	C	0.319303	0.095216	0.358228
	C168	C	0.878275	0.378527	0.165917
	C169	C	0.128617	0.593741	0.167282
	C170	C	0.125958	0.378615	0.801960
	C171	C	0.877555	0.595088	0.801758
	C172	C	0.183806	0.863575	0.375775
	C173	C	0.183977	0.110692	0.592692
	C174	C	0.820359	0.111758	0.376259
	C175	C	0.820937	0.863740	0.591823
	C176	C	0.394024	0.169282	0.858381
	C177	C	0.610003	0.169426	0.108178
	C178	C	0.394389	0.803732	0.109026
	C179	C	0.611745	0.806333	0.861305
	C180	C	0.394458	0.861164	0.166952
	C181	C	0.609436	0.112681	0.166728
	C182	C	0.393622	0.110969	0.801149
	C183	C	0.611751	0.863434	0.802791
	C184	C	0.878348	0.169011	0.376031
	C185	C	0.127038	0.169385	0.592321
	C186	C	0.125480	0.806476	0.375484
	C187	C	0.878470	0.805812	0.591826
	C188	C	0.183296	0.378309	0.860080
	C189	C	0.185200	0.593906	0.108761
	C190	C	0.820692	0.378554	0.107952
	C191	C	0.820636	0.595559	0.860305
	C192	C	0.406223	0.076936	0.580126
	C193	C	0.598774	0.896942	0.579817
	C194	C	0.596656	0.077321	0.388728
	C195	C	0.408494	0.898544	0.389105
	C196	C	0.597598	0.391377	0.073136
	C197	C	0.598819	0.584005	0.892929
	C198	C	0.408406	0.581184	0.073280
	C199	C	0.407463	0.391982	0.894920
	C200	C	0.092151	0.581794	0.389354
	C201	C	0.911957	0.581996	0.578878
	C202	C	0.092209	0.391771	0.579761
	C203	C	0.912574	0.392025	0.388340
	C204	C	0.906721	0.577204	0.080053
	C205	C	0.095979	0.397014	0.079184
	C206	C	0.096825	0.576320	0.888659
	C207	C	0.906749	0.396983	0.888455
	C208	C	0.098528	0.891133	0.574180
	C209	C	0.097472	0.082842	0.394573
	C210	C	0.906325	0.083650	0.574624
	C211	C	0.907175	0.892014	0.393972
	C212	C	0.592685	0.082889	0.886674
	C213	C	0.413332	0.080419	0.076322
	C214	C	0.591807	0.891702	0.078790
	C215	C	0.412511	0.891719	0.887719
	Zn216	Zn	0.502509	-0.013680	0.733245
	Zn217	Zn	0.502412	-0.012829	0.233331
	Zn218	Zn	0.752746	0.487069	-0.016312
	Zn219	Zn	0.252029	0.486250	-0.015539
	Zn220	Zn	0.001855	0.737103	0.483488
	Zn221	Zn	0.002279	0.237642	0.484224
	Zn222	Zn	0.001571	0.487282	0.733785
	Zn223	Zn	0.002567	0.486974	0.233970
	Zn224	Zn	0.502328	0.737152	-0.016132
	Zn225	Zn	0.502700	0.236710	-0.017007
	Zn226	Zn	0.752723	-0.012158	0.483752
	Zn227	Zn	0.252524	-0.013027	0.483790
	N228	N	0.415532	0.951916	0.663876
	N229	N	0.589581	0.021531	0.663707
	N230	N	0.590883	0.954227	0.302035
	N231	N	0.414264	0.021590	0.302275
	N232	N	0.682572	0.400219	0.949056
	N233	N	0.683087	0.574458	0.017889
	N234	N	0.321772	0.573727	0.950369
	N235	N	0.321015	0.398160	0.018132
	N236	N	0.968665	0.667863	0.395664
	N237	N	0.036463	0.666905	0.570276
	N238	N	0.967419	0.307354	0.570501
	N239	N	0.036556	0.306202	0.396075
	N240	N	0.967797	0.399183	0.664732
	N241	N	0.036012	0.574940	0.664420
	N242	N	0.968669	0.574633	0.302919
	N243	N	0.036786	0.399713	0.303376
	N244	N	0.414603	0.667520	0.950184
	N245	N	0.590114	0.667975	0.017721
	N246	N	0.590099	0.306346	0.948912
	N247	N	0.414008	0.304569	0.017444
	N248	N	0.683124	0.953960	0.396176
	N249	N	0.681372	0.022564	0.569374
	N250	N	0.322205	0.952279	0.571015
	N251	N	0.322093	0.022143	0.396388
	N252	N	0.915192	0.452505	0.164617
	N253	N	0.090798	0.520263	0.165426
	N254	N	0.088961	0.452442	0.803532
	N255	N	0.914251	0.521108	0.803023
	N256	N	0.182901	0.899769	0.449808
	N257	N	0.182329	0.073733	0.518921
	N258	N	0.821831	0.075279	0.450162
	N259	N	0.822276	0.900392	0.518082
	N260	N	0.468126	0.167742	0.895181
	N261	N	0.537054	0.166360	0.069496
	N262	N	0.467714	0.806426	0.071076
	N263	N	0.537484	0.807685	0.897525
	N264	N	0.467871	0.899117	0.164540
	N265	N	0.536199	0.074553	0.163787
	N266	N	0.467473	0.073737	0.802841
	N267	N	0.537569	0.900054	0.803521
	N268	N	0.915334	0.167631	0.449967
	N269	N	0.090415	0.168352	0.518378
	N270	N	0.089113	0.807366	0.449449
	N271	N	0.915044	0.806928	0.517928
	N272	N	0.181628	0.451956	0.897219
	N273	N	0.182226	0.520545	0.071317
	N274	N	0.822079	0.452483	0.071265
	N275	N	0.822673	0.521907	0.897566
	O276	O	-0.046070	0.809392	0.184279
	H277	H	-0.052100	0.805695	0.188013
	H278	H	-0.039843	0.795963	0.182011
	O279	O	0.213162	0.917392	0.031339
	H280	H	0.206264	0.911780	0.015508
	H281	H	0.218772	0.902964	0.034804
	O282	O	0.840446	0.152849	1.137361
	H283	H	0.863150	0.140815	1.122524
	H284	H	0.846230	0.132579	1.120038
	O285	O	0.679629	0.271047	0.478739
	H286	H	0.698452	0.258957	0.470753
	H287	H	0.677889	0.281589	0.461127
	O288	O	0.554793	0.464675	0.677404
	H289	H	0.564921	0.455120	0.672067
	H290	H	0.554228	0.472717	0.671926
	O291	O	0.529422	0.705938	0.706493
	H292	H	0.528908	0.725235	0.702128
	H293	H	0.534166	0.711077	0.705082
	O294	O	1.183138	-0.005184	1.205886
	H295	H	1.173249	0.014252	1.193666
	H296	H	1.205357	0.003957	1.230596
	O297	O	0.636537	0.441939	0.504292
	H298	H	0.652095	0.416394	0.492114
	H299	H	0.630593	0.439287	0.483777
	O300	O	-0.522975	-0.731555	1.700865
	H301	H	-0.521300	-0.728780	1.703154
	H302	H	-0.521760	-0.745056	1.709747
	O303	O	0.445389	0.428165	0.246603
	H304	H	0.426085	0.424386	0.241638
	H305	H	0.436989	0.435979	0.249871
	O306	O	0.541626	0.377160	0.393644
	H307	H	0.543023	0.388891	0.383311
	H308	H	0.524178	0.372764	0.386306
	O309	O	0.727285	0.709321	0.508277
	H310	H	0.735524	0.726635	0.514396
	H311	H	0.731477	0.713228	0.503218
	O312	O	0.432550	0.657509	0.502794
	H313	H	0.420715	0.661906	0.491349
	H314	H	0.422746	0.653841	0.498438
	O315	O	1.226972	1.050026	0.915755
	H316	H	1.218095	1.045881	0.924974
	H317	H	1.235483	1.021819	0.906753
	O318	O	0.307493	0.459494	0.474737
	H319	H	0.300168	0.451466	0.492909
	H320	H	0.312065	0.479147	0.479063
	O321	O	0.238926	0.753835	0.748855
	H322	H	0.203793	0.737156	0.743047
	H323	H	0.265987	0.728690	0.716996
	O324	O	1.023050	1.079161	-0.222420
	H325	H	1.017289	1.096695	-0.235756
	H326	H	1.050309	1.075363	-0.216409
	O327	O	-0.059129	0.119093	0.991869
	H328	H	-0.054498	0.118329	0.990213
	H329	H	-0.063830	0.129718	1.001378
	O330	O	0.491635	0.703957	0.275565
	H331	H	0.503950	0.704147	0.277746
	H332	H	0.496244	0.710273	0.266612
	O333	O	0.646350	0.388119	0.264057
	H334	H	0.655309	0.380124	0.256846
	H335	H	0.657002	0.362390	0.255037
	O336	O	0.495143	0.533737	0.445373
	H337	H	0.497988	0.521076	0.448999
	H338	H	0.490968	0.538242	0.442792
	O339	O	1.018334	-0.237212	1.061377
	H340	H	1.035226	-0.237240	1.063869
	H341	H	1.020400	-0.235951	1.051183
	O342	O	-0.222470	0.018739	-0.242971
	H343	H	-0.245195	0.036892	-0.265234
	H344	H	-0.221986	0.050622	-0.244503
	O345	O	0.180199	0.803966	1.163503
	H346	H	0.155278	0.812438	1.144362
	H347	H	0.171987	0.827996	1.149047
	O348	O	0.215237	0.201503	0.013144
	H349	H	0.236382	0.203972	0.010326
	H350	H	0.217756	0.193278	-0.001775
	O351	O	0.404759	0.276710	0.397331
	H352	H	0.398242	0.277658	0.402712
	H353	H	0.418532	0.282757	0.392159
	O354	O	-0.302647	-0.320424	1.291851
	H355	H	-0.298155	-0.299426	1.273261
	H356	H	-0.300576	-0.324887	1.282207
	O357	O	0.878136	0.834974	0.755876
	H358	H	0.855167	0.821715	0.746145
	H359	H	0.883219	0.870341	0.764802
	O360	O	0.463751	0.578837	0.559118
	H361	H	0.452117	0.582364	0.556490
	H362	H	0.468043	0.572039	0.555863
	O363	O	-0.205797	-0.215644	0.182429
	H364	H	-0.191578	-0.190035	0.169549
	H365	H	-0.198691	-0.210371	0.148185
	O366	O	0.682131	0.303009	0.673061
	H367	H	0.672400	0.313588	0.655603
	H368	H	0.668057	0.330358	0.666187
	O369	O	0.533246	0.277501	0.528604
	H370	H	0.529797	0.279052	0.533190
	H371	H	0.556239	0.279727	0.526761
	O372	O	0.731178	1.255015	0.252344
	H373	H	0.753587	1.225530	0.226640
	H374	H	0.710824	1.261282	0.263316
	O375	O	1.026213	0.199794	0.199146
	H376	H	1.021851	0.207712	0.224433
	H377	H	1.045655	0.195694	0.194940
	O378	O	0.537442	0.557995	0.360172
	H379	H	0.542517	0.549793	0.350271
	H380	H	0.536913	0.566101	0.371302
	O381	O	-0.184770	1.062036	0.893350
	H382	H	-0.179525	1.068731	0.909162
	H383	H	-0.207391	1.078973	0.881572
	O384	O	1.066125	0.159943	0.933169
	H385	H	1.074665	0.162541	0.933482
	H386	H	1.071409	0.153299	0.923415
	O387	O	1.084589	1.170293	-0.183154
	H388	H	1.080558	1.172418	-0.175299
	H389	H	1.103748	1.171236	-0.192390
	O390	O	0.625021	0.511207	0.254887
	H391	H	0.660769	0.502682	0.240408
	H392	H	0.602634	0.507826	0.250909
	O393	O	0.341995	0.640900	0.686961
	H394	H	0.357013	0.631390	0.678413
	H395	H	0.350596	0.623252	0.678479
	O396	O	0.051325	0.991032	1.013870
	H397	H	0.049922	0.999889	1.016714
	H398	H	0.039828	0.989528	1.007434
	O399	O	0.248107	0.236995	0.736669
	H400	H	0.265137	0.248719	0.717768
	H401	H	0.265235	0.242186	0.728930
	O402	O	0.523566	0.342533	0.352256
	H403	H	0.514341	0.331295	0.338188
	H404	H	0.532014	0.343607	0.357830
	O405	O	0.794742	0.191801	0.775377
	H406	H	0.827038	0.200028	0.790740
	H407	H	0.776886	0.217769	0.751066
	O408	O	0.220491	-0.096201	-0.227062
	H409	H	0.234836	-0.094315	-0.242643
	H410	H	0.232554	-0.127294	-0.242922
	O411	O	0.785885	0.970131	1.199452
	H412	H	0.782233	0.964724	1.190824
	H413	H	0.771310	0.965706	1.205367
	O414	O	0.295346	0.542105	0.574841
	H415	H	0.297047	0.532577	0.588021
	H416	H	0.306684	0.539495	0.557392
	O417	O	0.730624	0.435094	0.531010
	H418	H	0.728867	0.447113	0.508069
	H419	H	0.731564	0.429403	0.508634
	O420	O	0.276916	0.262584	0.509935
	H421	H	0.284195	0.258949	0.497476
	H422	H	0.254899	0.249511	0.508763
	O423	O	0.037954	-0.122592	0.777601
	H424	H	0.029646	-0.125472	0.775680
	H425	H	0.046069	-0.120100	0.766349
	O426	O	0.282256	0.499184	0.260494
	H427	H	0.288942	0.521498	0.289467
	H428	H	0.247761	0.512205	0.228835
	O429	O	1.197600	1.191638	1.185015
	H430	H	1.211391	1.178833	1.166885
	H431	H	1.187417	1.200739	1.171632
	O432	O	0.571438	0.714310	0.424288
	H433	H	0.581389	0.714926	0.410543
	H434	H	0.570619	0.705033	0.443657
	O435	O	0.012657	1.044399	-0.042905
	H436	H	0.015028	1.046367	-0.034048
	H437	H	0.018235	1.040406	-0.048330
	O438	O	0.013560	-0.111461	0.101098
	H439	H	0.029217	-0.103915	0.097872
	H440	H	0.011856	-0.130662	0.103305
	O441	O	0.223456	-0.229944	-0.043929
	H442	H	0.231266	-0.243822	-0.063851
	H443	H	0.228882	-0.240586	-0.072078
	O444	O	0.717946	0.498128	0.688253
	H445	H	0.738053	0.508532	0.701787
	H446	H	0.728132	0.488524	0.662298
	O447	O	0.150924	1.003122	1.140934
	H448	H	0.147128	1.000410	1.137893
	H449	H	0.149011	1.010709	1.137692
	O450	O	-0.047094	1.042984	1.211638
	H451	H	-0.055285	1.039849	1.212182
	H452	H	-0.042201	1.041170	1.209787
	O453	O	0.304990	0.357932	0.354851
	H454	H	0.302424	0.365497	0.365233
	H455	H	0.307727	0.382892	0.346610
	O456	O	0.418609	0.331408	0.581294
	H457	H	0.428937	0.342453	0.573353
	H458	H	0.419318	0.319941	0.561844
	O459	O	0.323473	0.527788	0.458092
	H460	H	0.330105	0.536853	0.461367
	H461	H	0.324391	0.529030	0.459501
	O462	O	0.773805	0.999196	1.009149
	H463	H	0.780329	1.006121	1.009833
	H464	H	0.768674	0.970334	0.996520
	O465	O	0.993679	-0.236516	-0.139355
	H466	H	0.984228	-0.222738	-0.145320
	H467	H	0.995744	-0.250227	-0.149108
	O468	O	0.304632	0.707465	0.266825
	H469	H	0.339129	0.697007	0.260540
	H470	H	0.281519	0.739648	0.233080
	O471	O	0.276733	0.713451	0.457907
	H472	H	0.255288	0.735433	0.439061
	H473	H	0.277069	0.715324	0.425356
	O474	O	0.716367	0.678075	0.695540
	H475	H	0.706752	0.674720	0.688179
	H476	H	0.705808	0.670330	0.685982
	O477	O	0.335800	0.441295	1.662010
	H478	H	0.329223	0.447389	1.685673
	H479	H	0.332530	0.437800	1.639761
	O480	O	0.731316	0.536957	0.420409
	H481	H	0.718477	0.555303	0.412571
	H482	H	0.734929	0.546421	0.398873
	O483	O	0.464289	0.511368	0.714753
	H484	H	0.454422	0.503251	0.711227
	H485	H	0.478847	0.519407	0.719756
	O486	O	1.093743	-0.059917	0.833654
	H487	H	1.110460	-0.035632	0.837008
	H488	H	1.085166	-0.046746	0.840959
	O489	O	0.856136	1.141303	0.039706
	H490	H	0.850744	1.154036	0.018767
	H491	H	0.856256	1.136770	0.035890
	O492	O	-0.128753	-0.147354	0.038069
	H493	H	-0.124164	-0.142525	0.029734
	H494	H	-0.134771	-0.155838	0.031044
	O495	O	-0.220678	0.851146	0.978003
	H496	H	-0.206576	0.848128	0.952869
	H497	H	-0.226374	0.838544	0.961220
	O498	O	0.894795	1.198176	0.849901
	H499	H	0.895864	1.204832	0.856228
	H500	H	0.895223	1.211208	0.830083
	O501	O	0.849983	0.787874	0.846008
	H502	H	0.851474	0.781157	0.833489
	H503	H	0.866494	0.813509	0.843194
