data_Molecule from HDF5

_cell_length_a		16.230460
_cell_length_b		16.166002
_cell_length_c		16.295387
_cell_angle_alpha	89.918947
_cell_angle_beta	90.140146
_cell_angle_gamma	89.953575
_symmetry_space_group_name_H-M	'P 1'
_symmetry_Int_Tables_number		1

loop_
	_symmetry_equiv_pos_as_xyz
	x,y,z

loop_
	_atom_site_label
	_atom_site_type_symbol
	_atom_site_fract_x
	_atom_site_fract_y
	_atom_site_fract_z
	H0	H	0.405021	0.838994	0.711848
	H1	H	0.602255	0.168970	0.711323
	H2	H	0.601737	0.838849	0.283996
	H3	H	0.404980	0.168789	0.283673
	H4	H	0.715946	0.406439	0.833882
	H5	H	0.717018	0.602816	0.160542
	H6	H	0.286307	0.604399	0.835031
	H7	H	0.288452	0.406490	0.162899
	H8	H	0.837975	0.717916	0.400563
	H9	H	0.167480	0.716691	0.594502
	H10	H	0.837361	0.291360	0.594063
	H11	H	0.166838	0.291887	0.400378
	H12	H	0.837958	0.405226	0.711931
	H13	H	0.165715	0.604353	0.712778
	H14	H	0.838674	0.604531	0.282502
	H15	H	0.166300	0.406197	0.284302
	H16	H	0.404183	0.717642	0.834511
	H17	H	0.600045	0.717404	0.161366
	H18	H	0.598476	0.291480	0.834041
	H19	H	0.404434	0.289148	0.161937
	H20	H	0.716296	0.839002	0.400616
	H21	H	0.716552	0.169565	0.594693
	H22	H	0.290401	0.838424	0.594931
	H23	H	0.289925	0.168924	0.399325
	H24	H	0.902857	0.340628	0.211986
	H25	H	0.100293	0.668973	0.211677
	H26	H	0.100802	0.340286	0.784598
	H27	H	0.902397	0.669338	0.783507
	H28	H	0.214960	0.906051	0.333001
	H29	H	0.218855	0.102768	0.661161
	H30	H	0.787409	0.105222	0.334113
	H31	H	0.789570	0.906048	0.661388
	H32	H	0.337133	0.217514	0.900629
	H33	H	0.667107	0.217438	0.095120
	H34	H	0.337853	0.791720	0.094785
	H35	H	0.666248	0.790461	0.901168
	H36	H	0.338677	0.904548	0.211422
	H37	H	0.666188	0.103514	0.212832
	H38	H	0.338485	0.103751	0.782546
	H39	H	0.666463	0.904937	0.784537
	H40	H	0.905680	0.218613	0.333947
	H41	H	0.101476	0.218376	0.661919
	H42	H	0.097947	0.791657	0.333592
	H43	H	0.906579	0.790841	0.661440
	H44	H	0.215538	0.340217	0.900740
	H45	H	0.214635	0.670346	0.096677
	H46	H	0.788969	0.340083	0.094609
	H47	H	0.789461	0.670219	0.900571
	H48	H	0.411722	0.121184	0.589953
	H49	H	0.597976	0.884408	0.597349
	H50	H	0.595286	0.118714	0.413172
	H51	H	0.413612	0.888820	0.411132
	H52	H	0.589633	0.405782	0.113764
	H53	H	0.597267	0.592528	0.881004
	H54	H	0.408614	0.591167	0.113593
	H55	H	0.405120	0.416644	0.882234
	H56	H	0.120947	0.602498	0.404963
	H57	H	0.882587	0.601113	0.595657
	H58	H	0.117547	0.414511	0.591439
	H59	H	0.886596	0.409111	0.411771
	H60	H	0.120689	0.410803	0.594742
	H61	H	0.885307	0.600496	0.586153
	H62	H	0.117763	0.594392	0.406673
	H63	H	0.885926	0.419790	0.401069
	H64	H	0.414530	0.603210	0.115051
	H65	H	0.589516	0.599227	0.882437
	H66	H	0.604439	0.408326	0.117663
	H67	H	0.412797	0.411588	0.883244
	H68	H	0.603511	0.124520	0.400720
	H69	H	0.591366	0.889180	0.590403
	H70	H	0.411849	0.120698	0.589181
	H71	H	0.400016	0.882741	0.403688
	H72	H	0.904108	0.626178	0.096702
	H73	H	0.101800	0.386250	0.085671
	H74	H	0.099262	0.624335	0.905141
	H75	H	0.903786	0.385322	0.904370
	H76	H	0.097684	0.909916	0.614327
	H77	H	0.094608	0.100998	0.380980
	H78	H	0.915695	0.084960	0.608803
	H79	H	0.911311	0.906236	0.379964
	H80	H	0.617921	0.100115	0.909158
	H81	H	0.384288	0.101764	0.088019
	H82	H	0.619930	0.909456	0.092076
	H83	H	0.384554	0.912903	0.901966
	H84	H	0.619220	0.911982	0.089350
	H85	H	0.387541	0.091576	0.088816
	H86	H	0.619476	0.092611	0.902731
	H87	H	0.383907	0.909964	0.903988
	H88	H	0.918353	0.108262	0.615239
	H89	H	0.100032	0.098725	0.380473
	H90	H	0.098195	0.910502	0.615696
	H91	H	0.902931	0.913300	0.379429
	H92	H	0.090994	0.622615	0.900035
	H93	H	0.095451	0.384680	0.098188
	H94	H	0.917462	0.621443	0.092972
	H95	H	0.911964	0.386480	0.899797
	H96	H	0.411303	0.120850	0.588965
	H97	H	0.600902	0.886059	0.587913
	H98	H	0.587679	0.121162	0.399337
	H99	H	0.413782	0.884665	0.395048
	H100	H	0.595529	0.419834	0.112046
	H101	H	0.598404	0.602293	0.878029
	H102	H	0.400505	0.601919	0.119032
	H103	H	0.404675	0.407617	0.880012
	H104	H	0.120374	0.596115	0.398580
	H105	H	0.885788	0.592553	0.592140
	H106	H	0.118990	0.410391	0.589756
	H107	H	0.881257	0.405963	0.398023
	H108	H	0.906166	0.621468	0.083203
	H109	H	0.088019	0.390555	0.087357
	H110	H	0.091128	0.620346	0.909424
	H111	H	0.911120	0.388765	0.908593
	H112	H	0.097818	0.910853	0.615058
	H113	H	0.096182	0.094914	0.381802
	H114	H	0.896659	0.096994	0.618450
	H115	H	0.913064	0.916202	0.382998
	H116	H	0.621770	0.101866	0.900529
	H117	H	0.383827	0.096973	0.097221
	H118	H	0.620096	0.912498	0.093512
	H119	H	0.386128	0.913748	0.905730
	C120	C	0.382505	0.012071	0.618567
	C121	C	0.625146	0.995642	0.619555
	C122	C	0.624299	0.012384	0.376110
	C123	C	0.381474	0.994860	0.375666
	C124	C	0.624219	0.383011	0.006205
	C125	C	0.623582	0.626244	0.988902
	C126	C	0.379641	0.626932	0.007261
	C127	C	0.379763	0.383146	0.990148
	C128	C	0.010974	0.626427	0.375531
	C129	C	0.993820	0.626232	0.619017
	C130	C	0.010407	0.383286	0.619536
	C131	C	0.993516	0.383418	0.375949
	C132	C	0.880754	0.513857	0.118985
	C133	C	0.123333	0.496169	0.119316
	C134	C	0.123202	0.513722	0.876536
	C135	C	0.880394	0.495867	0.875781
	C136	C	0.124794	0.882540	0.506065
	C137	C	0.125672	0.126631	0.489120
	C138	C	0.881329	0.125859	0.505980
	C139	C	0.881636	0.883030	0.488936
	C140	C	0.510853	0.126387	0.875662
	C141	C	0.493920	0.125696	0.119296
	C142	C	0.511449	0.882406	0.119510
	C143	C	0.493487	0.883320	0.876247
	C144	C	0.384721	0.888016	0.673767
	C145	C	0.622288	0.119914	0.673652
	C146	C	0.622102	0.888111	0.321654
	C147	C	0.384568	0.119542	0.321262
	C148	C	0.678329	0.385776	0.882767
	C149	C	0.678978	0.623253	0.111915
	C150	C	0.324255	0.624887	0.883953
	C151	C	0.325891	0.385881	0.113767
	C152	C	0.887107	0.680814	0.379494
	C153	C	0.118117	0.679646	0.615498
	C154	C	0.886802	0.328301	0.615757
	C155	C	0.117636	0.329147	0.379571
	C156	C	0.886791	0.385253	0.673956
	C157	C	0.117094	0.623912	0.674475
	C158	C	0.887299	0.624251	0.321034
	C159	C	0.117320	0.385701	0.321517
	C160	C	0.382667	0.681151	0.883676
	C161	C	0.620731	0.680251	0.112316
	C162	C	0.619863	0.329043	0.882740
	C163	C	0.383623	0.327858	0.113367
	C164	C	0.678958	0.888213	0.379606
	C165	C	0.679325	0.120160	0.615877
	C166	C	0.328040	0.887748	0.615623
	C167	C	0.327405	0.119542	0.378742
	C168	C	0.882697	0.389677	0.173959
	C169	C	0.120563	0.620083	0.174186
	C170	C	0.121246	0.389612	0.821980
	C171	C	0.881781	0.620047	0.820733
	C172	C	0.178133	0.885428	0.382280
	C173	C	0.180862	0.123631	0.612427
	C174	C	0.826000	0.124382	0.382873
	C175	C	0.827492	0.885617	0.612427
	C176	C	0.386653	0.180586	0.878905
	C177	C	0.617682	0.180436	0.116242
	C178	C	0.387244	0.828397	0.115863
	C179	C	0.617433	0.828384	0.880156
	C180	C	0.387459	0.884706	0.173632
	C181	C	0.617414	0.124003	0.174620
	C182	C	0.387469	0.124133	0.820241
	C183	C	0.617532	0.885291	0.822205
	C184	C	0.884750	0.180776	0.382632
	C185	C	0.122657	0.181099	0.612729
	C186	C	0.120197	0.828205	0.382508
	C187	C	0.885267	0.828412	0.612511
	C188	C	0.178168	0.389475	0.879835
	C189	C	0.177240	0.620727	0.116766
	C190	C	0.826506	0.389359	0.115492
	C191	C	0.825969	0.620546	0.879127
	C192	C	0.404987	0.098470	0.595997
	C193	C	0.603311	0.908736	0.598211
	C194	C	0.601955	0.099246	0.397933
	C195	C	0.402865	0.907908	0.396891
	C196	C	0.602866	0.404910	0.092245
	C197	C	0.601517	0.604514	0.902609
	C198	C	0.401418	0.605140	0.093610
	C199	C	0.401217	0.405469	0.904199
	C200	C	0.097421	0.604227	0.397025
	C201	C	0.906862	0.604450	0.597361
	C202	C	0.096723	0.405387	0.598258
	C203	C	0.906937	0.404996	0.397379
	C204	C	0.902821	0.600584	0.097357
	C205	C	0.101403	0.409415	0.097099
	C206	C	0.100665	0.600078	0.898464
	C207	C	0.902608	0.409224	0.897743
	C208	C	0.104171	0.904131	0.592669
	C209	C	0.103595	0.104763	0.403250
	C210	C	0.903822	0.103444	0.591975
	C211	C	0.902881	0.905274	0.402940
	C212	C	0.597454	0.104682	0.897715
	C213	C	0.407664	0.103374	0.097709
	C214	C	0.597512	0.904665	0.097935
	C215	C	0.407138	0.905615	0.897496
	Zn216	Zn	0.503050	0.004244	0.747348
	Zn217	Zn	0.502867	0.003388	0.247606
	Zn218	Zn	0.752799	0.504881	-0.002808
	Zn219	Zn	0.251537	0.505339	-0.001360
	Zn220	Zn	0.003162	0.754266	0.497850
	Zn221	Zn	0.002864	0.254907	0.497690
	Zn222	Zn	0.001609	0.505335	0.748168
	Zn223	Zn	0.002216	0.504345	0.247425
	Zn224	Zn	0.501839	0.754823	-0.002032
	Zn225	Zn	0.501891	0.254340	-0.002301
	Zn226	Zn	0.752635	0.004400	0.497490
	Zn227	Zn	0.253856	0.003669	0.497356
	N228	N	0.417779	0.966295	0.675679
	N229	N	0.589249	0.041552	0.676108
	N230	N	0.588961	0.966540	0.319322
	N231	N	0.417549	0.041043	0.319291
	N232	N	0.681028	0.418789	0.960533
	N233	N	0.681024	0.590545	0.034107
	N234	N	0.322461	0.591792	0.961762
	N235	N	0.323397	0.419572	0.036136
	N236	N	0.965117	0.682159	0.412726
	N237	N	0.040367	0.680989	0.581808
	N238	N	0.964606	0.327131	0.582447
	N239	N	0.039733	0.327711	0.412799
	N240	N	0.964777	0.418533	0.676646
	N241	N	0.038708	0.591440	0.676684
	N242	N	0.965236	0.591019	0.318645
	N243	N	0.039247	0.418644	0.319221
	N244	N	0.416385	0.682623	0.961323
	N245	N	0.586877	0.681842	0.034850
	N246	N	0.587088	0.327004	0.960538
	N247	N	0.416352	0.326188	0.035568
	N248	N	0.680255	0.966434	0.412752
	N249	N	0.680827	0.041919	0.582719
	N250	N	0.326593	0.966006	0.581968
	N251	N	0.325503	0.041244	0.411873
	N252	N	0.915621	0.468163	0.176325
	N253	N	0.087502	0.541694	0.175704
	N254	N	0.087716	0.467709	0.819826
	N255	N	0.914998	0.541754	0.818675
	N256	N	0.180851	0.918521	0.460084
	N257	N	0.182827	0.090652	0.534660
	N258	N	0.824165	0.090803	0.460462
	N259	N	0.825021	0.918890	0.534630
	N260	N	0.464362	0.182060	0.912618
	N261	N	0.539848	0.181660	0.082459
	N262	N	0.465229	0.826890	0.082792
	N263	N	0.539399	0.827031	0.912994
	N264	N	0.465622	0.917452	0.176328
	N265	N	0.539617	0.090705	0.176737
	N266	N	0.465903	0.091476	0.817998
	N267	N	0.539575	0.918754	0.819747
	N268	N	0.918506	0.181823	0.460190
	N269	N	0.089098	0.183334	0.535131
	N270	N	0.087709	0.826548	0.460473
	N271	N	0.918352	0.826818	0.534818
	N272	N	0.179668	0.467639	0.913057
	N273	N	0.179071	0.542660	0.083368
	N274	N	0.825040	0.467606	0.082154
	N275	N	0.824830	0.542309	0.912634
	O276	O	-0.016335	0.031079	0.969617
	H277	H	-0.016875	0.035650	0.963572
	H278	H	-0.018660	0.036480	0.973918
	O279	O	0.459819	0.391943	0.591120
	H280	H	0.458233	0.387445	0.590728
	H281	H	0.458582	0.390016	0.595096
	O282	O	0.469939	0.384705	0.539908
	H283	H	0.469893	0.389385	0.526534
	H284	H	0.471506	0.378742	0.539482
	O285	O	0.469086	0.440526	0.539540
	H286	H	0.467601	0.439345	0.543809
	H287	H	0.466511	0.444079	0.544626
	O288	O	0.454708	0.399211	0.543753
	H289	H	0.454177	0.398568	0.544191
	H290	H	0.452228	0.389777	0.543844
	O291	O	-0.016927	1.033988	0.977478
	H292	H	-0.018831	1.033967	0.972704
	H293	H	-0.021039	1.032609	0.985165
	O294	O	0.480174	0.418301	0.505070
	H295	H	0.478581	0.428212	0.511168
	H296	H	0.482204	0.418414	0.506525
	O297	O	0.986455	0.022515	-0.021606
	H298	H	0.983283	0.027968	-0.022501
	H299	H	0.985809	0.024023	-0.023409
