data_Molecule from HDF5

_cell_length_a		16.403082
_cell_length_b		16.393232
_cell_length_c		16.472227
_cell_angle_alpha	90.079577
_cell_angle_beta	89.998818
_cell_angle_gamma	90.089484
_symmetry_space_group_name_H-M	'P 1'
_symmetry_Int_Tables_number		1

loop_
	_symmetry_equiv_pos_as_xyz
	x,y,z

loop_
	_atom_site_label
	_atom_site_type_symbol
	_atom_site_fract_x
	_atom_site_fract_y
	_atom_site_fract_z
	H0	H	0.385133	0.842016	0.744673
	H1	H	0.604165	0.154976	0.741982
	H2	H	0.602138	0.841185	0.293103
	H3	H	0.386769	0.154610	0.294795
	H4	H	0.718229	0.389849	0.862657
	H5	H	0.719198	0.606240	0.174873
	H6	H	0.274243	0.603934	0.860227
	H7	H	0.270179	0.389729	0.174059
	H8	H	0.840117	0.719202	0.412794
	H9	H	0.154372	0.719824	0.626256
	H10	H	0.837512	0.275933	0.622655
	H11	H	0.154377	0.273954	0.411167
	H12	H	0.836886	0.391015	0.738731
	H13	H	0.154212	0.602684	0.741110
	H14	H	0.841164	0.605347	0.293682
	H15	H	0.152806	0.385257	0.290452
	H16	H	0.388702	0.720814	0.860353
	H17	H	0.600811	0.721002	0.175138
	H18	H	0.603310	0.273348	0.862725
	H19	H	0.384960	0.272941	0.174392
	H20	H	0.716737	0.839683	0.412405
	H21	H	0.718846	0.155630	0.624638
	H22	H	0.270234	0.840784	0.627433
	H23	H	0.272524	0.155066	0.411363
	H24	H	0.889489	0.339458	0.239915
	H25	H	0.107041	0.654160	0.243468
	H26	H	0.098087	0.337367	0.800726
	H27	H	0.891277	0.656341	0.798441
	H28	H	0.217201	0.891779	0.360085
	H29	H	0.218584	0.103609	0.675374
	H30	H	0.775068	0.102438	0.359748
	H31	H	0.774676	0.893248	0.676081
	H32	H	0.337734	0.218201	0.914483
	H33	H	0.652885	0.220578	0.125679
	H34	H	0.335116	0.777149	0.123025
	H35	H	0.654049	0.777227	0.913390
	H36	H	0.337026	0.890272	0.241778
	H37	H	0.653542	0.103809	0.239739
	H38	H	0.338723	0.105273	0.795513
	H39	H	0.652934	0.890433	0.794681
	H40	H	0.890329	0.219212	0.360183
	H41	H	0.099819	0.217233	0.676849
	H42	H	0.104055	0.773072	0.361346
	H43	H	0.892727	0.778046	0.677595
	H44	H	0.216978	0.339007	0.912608
	H45	H	0.216713	0.657456	0.122009
	H46	H	0.774706	0.339107	0.122414
	H47	H	0.774732	0.656984	0.914069
	H48	H	0.400728	0.111315	0.601249
	H49	H	0.583558	0.884391	0.607601
	H50	H	0.586434	0.111487	0.431215
	H51	H	0.409556	0.884066	0.427764
	H52	H	0.581131	0.415106	0.128363
	H53	H	0.585928	0.589254	0.903423
	H54	H	0.395846	0.588833	0.135079
	H55	H	0.408851	0.406978	0.905145
	H56	H	0.108964	0.582664	0.433647
	H57	H	0.884285	0.586503	0.602352
	H58	H	0.109799	0.410145	0.611138
	H59	H	0.883733	0.405151	0.431546
	H60	H	0.111504	0.404918	0.610929
	H61	H	0.883936	0.581089	0.610359
	H62	H	0.109904	0.582464	0.429320
	H63	H	0.887995	0.412993	0.433787
	H64	H	0.408891	0.578138	0.126364
	H65	H	0.585529	0.584269	0.905807
	H66	H	0.579657	0.406335	0.131215
	H67	H	0.405447	0.411026	0.905885
	H68	H	0.586973	0.112817	0.426608
	H69	H	0.582508	0.885592	0.606189
	H70	H	0.410066	0.113325	0.614792
	H71	H	0.410295	0.886606	0.431243
	H72	H	0.910504	0.610056	0.106131
	H73	H	0.083028	0.384154	0.110250
	H74	H	0.092021	0.615195	0.926177
	H75	H	0.906068	0.384204	0.932504
	H76	H	0.080916	0.911143	0.628951
	H77	H	0.089644	0.078660	0.405230
	H78	H	0.904667	0.080689	0.630130
	H79	H	0.911554	0.912566	0.408942
	H80	H	0.609718	0.081306	0.926742
	H81	H	0.381351	0.086607	0.107906
	H82	H	0.606467	0.914250	0.109535
	H83	H	0.383531	0.912780	0.929685
	H84	H	0.610149	0.905855	0.108773
	H85	H	0.382729	0.085505	0.103958
	H86	H	0.611034	0.089882	0.929683
	H87	H	0.381265	0.910268	0.927155
	H88	H	0.913204	0.086939	0.628278
	H89	H	0.076964	0.084751	0.408664
	H90	H	0.083996	0.906108	0.632632
	H91	H	0.910094	0.902278	0.404576
	H92	H	0.078860	0.611273	0.922204
	H93	H	0.077501	0.388276	0.101023
	H94	H	0.908514	0.610574	0.104912
	H95	H	0.902172	0.382024	0.927705
	H96	H	0.415828	0.105403	0.601508
	H97	H	0.584476	0.884768	0.605211
	H98	H	0.582796	0.110915	0.428386
	H99	H	0.406849	0.884432	0.430948
	H100	H	0.587996	0.410910	0.133082
	H101	H	0.581993	0.587458	0.905984
	H102	H	0.412993	0.596215	0.131254
	H103	H	0.410421	0.410995	0.907685
	H104	H	0.110928	0.586102	0.431151
	H105	H	0.880943	0.590822	0.609952
	H106	H	0.109376	0.406842	0.606661
	H107	H	0.883177	0.412367	0.425695
	H108	H	0.908870	0.611527	0.107330
	H109	H	0.088447	0.384598	0.100498
	H110	H	0.083669	0.608564	0.935537
	H111	H	0.907897	0.384939	0.926667
	H112	H	0.086819	0.911699	0.631130
	H113	H	0.086986	0.092860	0.402247
	H114	H	0.904895	0.090759	0.633570
	H115	H	0.901622	0.909785	0.403383
	H116	H	0.606955	0.083570	0.934573
	H117	H	0.382479	0.082731	0.107129
	H118	H	0.605587	0.910080	0.101440
	H119	H	0.382678	0.908292	0.931115
	C120	C	0.374356	0.006291	0.640025
	C121	C	0.617213	0.989199	0.639472
	C122	C	0.617600	0.006975	0.395950
	C123	C	0.374968	0.988915	0.396894
	C124	C	0.616511	0.376269	0.027688
	C125	C	0.617187	0.619850	1.009476
	C126	C	0.373591	0.619968	0.026681
	C127	C	0.374063	0.376271	1.009728
	C128	C	0.006110	0.617657	0.397682
	C129	C	0.987417	0.618771	0.640580
	C130	C	0.004900	0.375500	0.640264
	C131	C	0.988786	0.376043	0.396558
	C132	C	0.875353	0.506260	0.139231
	C133	C	0.117286	0.489585	0.138311
	C134	C	0.116791	0.506105	0.896388
	C135	C	0.873340	0.488874	0.896930
	C136	C	0.117695	0.876009	0.526918
	C137	C	0.117361	0.118686	0.509379
	C138	C	0.874758	0.118888	0.526419
	C139	C	0.874871	0.875769	0.509809
	C140	C	0.504741	0.118258	0.897928
	C141	C	0.486650	0.118856	0.139633
	C142	C	0.502796	0.876945	0.139330
	C143	C	0.486546	0.876633	0.896172
	C144	C	0.368465	0.888673	0.703027
	C145	C	0.621278	0.107798	0.700860
	C146	C	0.620462	0.888028	0.334516
	C147	C	0.370290	0.107622	0.335851
	C148	C	0.677849	0.372308	0.909718
	C149	C	0.677971	0.623517	0.128000
	C150	C	0.313685	0.622406	0.907607
	C151	C	0.311485	0.372523	0.127289
	C152	C	0.887742	0.679494	0.394117
	C153	C	0.106798	0.679356	0.643919
	C154	C	0.885188	0.315614	0.641417
	C155	C	0.106996	0.313889	0.392682
	C156	C	0.884877	0.373180	0.699250
	C157	C	0.106723	0.620865	0.700997
	C158	C	0.888186	0.622720	0.335031
	C159	C	0.106173	0.369783	0.332943
	C160	C	0.370824	0.680445	0.907663
	C161	C	0.619366	0.680743	0.128119
	C162	C	0.620805	0.313945	0.910004
	C163	C	0.368786	0.314131	0.127460
	C164	C	0.677400	0.887329	0.393611
	C165	C	0.678656	0.107872	0.642759
	C166	C	0.311188	0.887992	0.644545
	C167	C	0.313250	0.107706	0.393802
	C168	C	0.871629	0.387075	0.199702
	C169	C	0.122803	0.607558	0.201544
	C170	C	0.117495	0.385806	0.838712
	C171	C	0.872350	0.608540	0.837751
	C172	C	0.177880	0.873201	0.407823
	C173	C	0.177930	0.121602	0.628137
	C174	C	0.814679	0.121025	0.407354
	C175	C	0.814805	0.874419	0.628886
	C176	C	0.385332	0.178358	0.895526
	C177	C	0.605483	0.180123	0.143197
	C178	C	0.383149	0.816841	0.141335
	C179	C	0.606155	0.816778	0.894375
	C180	C	0.383910	0.873356	0.200537
	C181	C	0.605755	0.122116	0.200153
	C182	C	0.386041	0.122055	0.836320
	C183	C	0.605480	0.872729	0.834953
	C184	C	0.872258	0.179244	0.407615
	C185	C	0.118922	0.178161	0.628950
	C186	C	0.121431	0.814160	0.408447
	C187	C	0.873081	0.816761	0.629295
	C188	C	0.176610	0.386707	0.894614
	C189	C	0.177779	0.609060	0.141158
	C190	C	0.814133	0.387148	0.141621
	C191	C	0.814274	0.608858	0.895507
	C192	C	0.401280	0.088502	0.613496
	C193	C	0.590990	0.906419	0.613624
	C194	C	0.592414	0.090121	0.421360
	C195	C	0.401304	0.906593	0.422521
	C196	C	0.590399	0.402874	0.109681
	C197	C	0.591839	0.594306	0.926687
	C198	C	0.398841	0.595051	0.109331
	C199	C	0.400783	0.402037	0.927669
	C200	C	0.088355	0.591325	0.423747
	C201	C	0.904626	0.593460	0.615108
	C202	C	0.088306	0.400287	0.616378
	C203	C	0.906653	0.402701	0.422663
	C204	C	0.901766	0.589047	0.113574
	C205	C	0.090567	0.407247	0.111854
	C206	C	0.091933	0.589950	0.920884
	C207	C	0.898138	0.405438	0.921824
	C208	C	0.091513	0.902237	0.609363
	C209	C	0.091802	0.093055	0.426961
	C210	C	0.900331	0.093455	0.609063
	C211	C	0.900312	0.900870	0.427151
	C212	C	0.587739	0.092415	0.923227
	C213	C	0.403757	0.092435	0.113809
	C214	C	0.585809	0.902789	0.113993
	C215	C	0.404066	0.902809	0.921826
	Zn216	Zn	0.496035	-0.001993	0.768257
	Zn217	Zn	0.495256	-0.001540	0.268056
	Zn218	Zn	0.745294	0.498017	0.018820
	Zn219	Zn	0.245533	0.498081	0.017240
	Zn220	Zn	-0.002876	0.747230	0.519222
	Zn221	Zn	-0.003822	0.247568	0.518091
	Zn222	Zn	-0.004139	0.496716	0.768778
	Zn223	Zn	-0.002764	0.496800	0.267483
	Zn224	Zn	0.494700	0.748008	0.018009
	Zn225	Zn	0.495388	0.246913	0.018996
	Zn226	Zn	0.745719	-0.002531	0.517994
	Zn227	Zn	0.246648	-0.002626	0.517633
	N228	N	0.407047	0.963014	0.700230
	N229	N	0.583654	0.032880	0.698950
	N230	N	0.584157	0.963402	0.335961
	N231	N	0.408123	0.032897	0.337688
	N232	N	0.675296	0.410532	0.983798
	N233	N	0.676730	0.586544	0.053096
	N234	N	0.315067	0.585728	0.982541
	N235	N	0.314472	0.410349	0.053066
	N236	N	0.962014	0.676382	0.432505
	N237	N	0.031812	0.678226	0.606998
	N238	N	0.960725	0.316724	0.605579
	N239	N	0.033022	0.317628	0.431693
	N240	N	0.960259	0.409602	0.698863
	N241	N	0.031421	0.584085	0.699299
	N242	N	0.962756	0.584965	0.337077
	N243	N	0.031578	0.407447	0.335089
	N244	N	0.407389	0.679066	0.982583
	N245	N	0.582469	0.678744	0.053264
	N246	N	0.583339	0.316179	0.984597
	N247	N	0.407437	0.316492	0.053299
	N248	N	0.675706	0.962270	0.430981
	N249	N	0.676090	0.033064	0.605159
	N250	N	0.314856	0.962146	0.605871
	N251	N	0.316173	0.032941	0.431220
	N252	N	0.908662	0.462337	0.198514
	N253	N	0.086206	0.532046	0.200044
	N254	N	0.081165	0.461223	0.839680
	N255	N	0.907852	0.532703	0.838165
	N256	N	0.175810	0.910701	0.482499
	N257	N	0.177285	0.085581	0.552904
	N258	N	0.815938	0.084561	0.482301
	N259	N	0.815646	0.910217	0.553413
	N260	N	0.460134	0.176283	0.932827
	N261	N	0.530158	0.178353	0.106600
	N262	N	0.458111	0.818978	0.103798
	N263	N	0.531349	0.819044	0.931746
	N264	N	0.459461	0.909714	0.199547
	N265	N	0.530740	0.084775	0.197971
	N266	N	0.461561	0.085792	0.837445
	N267	N	0.529941	0.908971	0.835625
	N268	N	0.908703	0.178143	0.482705
	N269	N	0.082074	0.176517	0.553977
	N270	N	0.085037	0.815582	0.483610
	N271	N	0.909568	0.817441	0.554234
	N272	N	0.176228	0.462753	0.929749
	N273	N	0.174587	0.534699	0.102708
	N274	N	0.816123	0.462487	0.104946
	N275	N	0.814791	0.533277	0.931413
	O276	O	0.322631	0.677081	0.340379
	H277	H	0.309689	0.653332	0.348909
	H278	H	0.355520	0.668365	0.342861
	O279	O	1.122301	-0.127847	1.108654
	H280	H	1.119466	-0.134521	1.110648
	H281	H	1.113767	-0.141634	1.092869
	O282	O	-0.024931	1.011215	1.024799
	H283	H	-0.037222	1.030637	1.026340
	H284	H	-0.060003	1.009952	1.025808
	O285	O	-0.099451	1.044169	0.057600
	H286	H	-0.102249	1.046687	0.046700
	H287	H	-0.090118	1.042100	0.081704
	O288	O	1.428180	1.457919	-0.324944
	H289	H	1.414263	1.473135	-0.314903
	H290	H	1.445444	1.475530	-0.340839
	O291	O	0.282292	0.285041	0.538137
	H292	H	0.305326	0.278365	0.540490
	H293	H	0.256352	0.255410	0.540266
	O294	O	-0.153327	-0.128678	0.922434
	H295	H	-0.141837	-0.120468	0.920408
	H296	H	-0.164582	-0.139825	0.913006
	O297	O	0.283518	0.434599	0.569192
	H298	H	0.302563	0.433426	0.579833
	H299	H	0.290513	0.422304	0.589275
	O300	O	1.038986	0.964142	0.907209
	H301	H	1.021595	0.963292	0.908290
	H302	H	1.032426	0.954894	0.919103
	O303	O	0.711634	0.284971	0.500820
	H304	H	0.689124	0.294731	0.470067
	H305	H	0.742761	0.250658	0.498617
	O306	O	0.284807	0.487296	0.377407
	H307	H	0.272456	0.475911	0.372059
	H308	H	0.272003	0.470887	0.385178
	O309	O	1.015389	0.203933	0.226569
	H310	H	1.060887	0.193494	0.220151
	H311	H	1.023821	0.238201	0.250309
	O312	O	0.097916	0.793369	1.057279
	H313	H	0.104462	0.782845	1.053202
	H314	H	0.081161	0.799333	1.071897
	O315	O	0.612374	0.490037	0.473924
	H316	H	0.613951	0.492089	0.504537
	H317	H	0.608051	0.469598	0.472905
	O318	O	0.991963	0.056153	-0.157716
	H319	H	1.004569	0.063269	-0.162526
	H320	H	0.996037	0.039921	-0.158194
	O321	O	0.435388	0.420405	-0.264479
	H322	H	0.421742	0.416417	-0.259821
	H323	H	0.447055	0.448330	-0.266267
	O324	O	0.711113	0.474248	0.299999
	H325	H	0.723853	0.469853	0.282610
	H326	H	0.726713	0.483606	0.309676
	O327	O	0.385610	0.620767	0.689363
	H328	H	0.387128	0.632599	0.689510
	H329	H	0.402357	0.632618	0.663216
	O330	O	0.099210	0.999870	0.125461
	H331	H	0.100921	0.985195	0.130639
	H332	H	0.121373	0.994840	0.105567
	O333	O	0.570103	0.444329	0.708671
	H334	H	0.562323	0.433883	0.714460
	H335	H	0.565392	0.452011	0.711020
	O336	O	-0.058457	-0.208679	0.223636
	H337	H	-0.075231	-0.207799	0.227084
	H338	H	-0.059225	-0.215322	0.226185
	O339	O	-0.073388	0.814930	-0.059322
	H340	H	-0.083924	0.819946	-0.042169
	H341	H	-0.083792	0.794420	-0.056601
	O342	O	0.031964	1.121657	0.949519
	H343	H	0.022993	1.116768	0.924664
	H344	H	0.036651	1.114512	0.952588
	O345	O	0.297369	0.634525	-0.470835
	H346	H	0.299381	0.624748	-0.469944
	H347	H	0.273114	0.639265	-0.481338
	O348	O	0.444300	0.351245	0.466468
	H349	H	0.452641	0.340024	0.446782
	H350	H	0.450795	0.359254	0.489372
	O351	O	0.570571	1.436250	1.557724
	H352	H	0.582210	1.430148	1.567270
	H353	H	0.564931	1.433668	1.579905
	O354	O	0.368945	0.512210	-0.459382
	H355	H	0.385461	0.503836	-0.446622
	H356	H	0.373392	0.482522	-0.447722
	O357	O	-0.019454	0.077257	0.997215
	H358	H	-0.005055	0.064859	1.000362
	H359	H	-0.045998	0.064937	1.001805
	O360	O	0.558755	0.307216	0.639416
	H361	H	0.567140	0.310373	0.648125
	H362	H	0.581729	0.300091	0.648632
	O363	O	-0.127388	0.018487	0.820396
	H364	H	-0.125359	0.051895	0.824621
	H365	H	-0.144312	0.031026	0.803118
	O366	O	0.464795	0.723068	0.558677
	H367	H	0.463703	0.716139	0.540340
	H368	H	0.460761	0.717569	0.541097
	O369	O	0.659366	0.475499	0.420405
	H370	H	0.659611	0.490823	0.439367
	H371	H	0.655061	0.456607	0.438508
	O372	O	0.805931	-0.167032	1.174258
	H373	H	0.783106	-0.187800	1.190973
	H374	H	0.817537	-0.148541	1.177772
	O375	O	0.684299	0.621785	0.387866
	H376	H	0.682576	0.595259	0.397092
	H377	H	0.668815	0.613559	0.399048
	O378	O	0.684248	0.683871	0.708128
	H379	H	0.659303	0.669576	0.718466
	H380	H	0.669663	0.689983	0.682930
	O381	O	0.573951	0.548828	0.332585
	H382	H	0.593626	0.537101	0.338010
	H383	H	0.575841	0.550955	0.328076
	O384	O	0.528050	0.313924	0.366707
	H385	H	0.511118	0.338923	0.362579
	H386	H	0.524626	0.284701	0.345180
	O387	O	0.181651	0.103012	1.198013
	H388	H	0.182809	0.074344	1.187686
	H389	H	0.192670	0.094950	1.191724
	O390	O	0.057129	-0.182537	-0.143483
	H391	H	0.040865	-0.173137	-0.142407
	H392	H	0.056262	-0.190567	-0.134043
	O393	O	0.876166	0.998254	0.927614
	H394	H	0.869657	0.994200	0.932167
	H395	H	0.879707	0.976808	0.926176
	O396	O	1.189985	-0.131890	-0.171082
	H397	H	1.156876	-0.138166	-0.173439
	H398	H	1.202286	-0.127278	-0.156319
	O399	O	0.921220	0.176412	0.953837
	H400	H	0.922908	0.173726	0.952262
	H401	H	0.923527	0.188728	0.954484
	O402	O	1.103458	1.184129	1.017935
	H403	H	1.112260	1.193468	1.011507
	H404	H	1.094221	1.189030	1.007392
	O405	O	0.864838	1.103899	0.108696
	H406	H	0.857613	1.099855	0.095901
	H407	H	0.880935	1.107355	0.133942
	O408	O	0.412787	-0.603929	0.317703
	H409	H	0.407909	-0.577984	0.328697
	H410	H	0.417942	-0.589735	0.323611
	O411	O	1.182216	0.948662	-0.088198
	H412	H	1.199893	0.956548	-0.083659
	H413	H	1.179235	0.938503	-0.088016
	O414	O	0.293509	0.622804	0.405578
	H415	H	0.289690	0.610596	0.377757
	H416	H	0.283974	0.645642	0.402485
	O417	O	0.478853	0.281782	0.624878
	H418	H	0.475495	0.263766	0.642115
	H419	H	0.447924	0.287747	0.611882
	O420	O	-0.070451	0.020726	0.194792
	H421	H	-0.078738	0.045075	0.202041
	H422	H	-0.064673	0.017841	0.197657
	O423	O	0.519525	0.711605	0.732561
	H424	H	0.494568	0.724695	0.691813
	H425	H	0.518412	0.747630	0.760633
	O426	O	0.713041	0.522355	0.736341
	H427	H	0.714464	0.539830	0.750137
	H428	H	0.717215	0.521971	0.759026
	O429	O	-0.125444	0.846204	0.011325
	H430	H	-0.129477	0.836415	0.009365
	H431	H	-0.134812	0.840838	0.017043
	O432	O	0.713047	0.711133	0.545981
	H433	H	0.716938	0.717565	0.546067
	H434	H	0.727755	0.718290	0.549338
	O435	O	0.688110	0.316024	0.333278
	H436	H	0.661422	0.331450	0.328354
	H437	H	0.670889	0.329547	0.335683
	O438	O	0.197054	0.019581	0.076964
	H439	H	0.187538	0.007301	0.086563
	H440	H	0.196328	0.011038	0.084967
	O441	O	1.290495	0.281595	-0.265606
	H442	H	1.292526	0.329469	-0.265487
	H443	H	1.291479	0.262399	-0.284440
	O444	O	-0.177437	1.186864	0.865581
	H445	H	-0.164432	1.174356	0.885367
	H446	H	-0.175525	1.190760	0.887891
	O447	O	0.480855	0.711718	0.306064
	H448	H	0.476438	0.738982	0.283961
	H449	H	0.470603	0.698006	0.330260
	O450	O	0.835821	-0.004870	0.230943
	H451	H	0.828440	-0.003144	0.238731
	H452	H	0.839926	0.006035	0.230110
	O453	O	0.527434	0.664426	0.450345
	H454	H	0.524240	0.658837	0.446587
	H455	H	0.540789	0.652993	0.450180
