data_Molecule from HDF5

_cell_length_a		16.422176
_cell_length_b		16.561397
_cell_length_c		16.704420
_cell_angle_alpha	89.935389
_cell_angle_beta	90.008690
_cell_angle_gamma	89.930331
_symmetry_space_group_name_H-M	'P 1'
_symmetry_Int_Tables_number		1

loop_
	_symmetry_equiv_pos_as_xyz
	x,y,z

loop_
	_atom_site_label
	_atom_site_type_symbol
	_atom_site_fract_x
	_atom_site_fract_y
	_atom_site_fract_z
	H0	H	0.383522	0.838485	0.710420
	H1	H	0.596721	0.151090	0.709660
	H2	H	0.599900	0.838477	0.265404
	H3	H	0.385102	0.149799	0.266175
	H4	H	0.711077	0.388758	0.831252
	H5	H	0.713476	0.599133	0.142071
	H6	H	0.275349	0.591121	0.828871
	H7	H	0.272025	0.392802	0.145841
	H8	H	0.833124	0.716578	0.383129
	H9	H	0.148480	0.712039	0.589484
	H10	H	0.831500	0.274174	0.591183
	H11	H	0.147928	0.273359	0.382166
	H12	H	0.831327	0.388842	0.707650
	H13	H	0.148128	0.596071	0.706380
	H14	H	0.834215	0.602920	0.263556
	H15	H	0.146358	0.387859	0.264941
	H16	H	0.386496	0.713657	0.831990
	H17	H	0.597453	0.716941	0.142052
	H18	H	0.596579	0.269373	0.832769
	H19	H	0.387558	0.274143	0.145502
	H20	H	0.711282	0.836866	0.387113
	H21	H	0.711270	0.151830	0.592086
	H22	H	0.272679	0.835962	0.588708
	H23	H	0.270109	0.150321	0.383423
	H24	H	0.879516	0.341356	0.213392
	H25	H	0.095555	0.650566	0.208431
	H26	H	0.094053	0.336740	0.767329
	H27	H	0.880743	0.649419	0.763935
	H28	H	0.213373	0.888017	0.332854
	H29	H	0.212944	0.098088	0.642671
	H30	H	0.768959	0.098045	0.332965
	H31	H	0.766737	0.886684	0.644456
	H32	H	0.330767	0.211413	0.885729
	H33	H	0.648134	0.212662	0.090763
	H34	H	0.330796	0.776055	0.091571
	H35	H	0.646572	0.770325	0.880980
	H36	H	0.333901	0.887566	0.210928
	H37	H	0.648888	0.096244	0.205996
	H38	H	0.333110	0.099520	0.766237
	H39	H	0.647168	0.885904	0.765267
	H40	H	0.884223	0.216966	0.333711
	H41	H	0.098349	0.217681	0.642020
	H42	H	0.098503	0.768553	0.335168
	H43	H	0.882100	0.769021	0.643817
	H44	H	0.207225	0.335452	0.887336
	H45	H	0.207375	0.652289	0.087799
	H46	H	0.767073	0.338855	0.093653
	H47	H	0.767321	0.650430	0.882795
	H48	H	0.406694	0.105106	0.580366
	H49	H	0.579277	0.883624	0.574098
	H50	H	0.579617	0.105634	0.399403
	H51	H	0.406269	0.884425	0.404351
	H52	H	0.575470	0.395411	0.099295
	H53	H	0.582045	0.576158	0.878009
	H54	H	0.401008	0.590779	0.101455
	H55	H	0.394180	0.398864	0.874095
	H56	H	0.102304	0.576808	0.396754
	H57	H	0.875682	0.581681	0.578975
	H58	H	0.102345	0.405735	0.575840
	H59	H	0.879789	0.409994	0.402582
	H60	H	0.102464	0.406266	0.578739
	H61	H	0.876324	0.584266	0.576710
	H62	H	0.104425	0.585159	0.397391
	H63	H	0.876785	0.408680	0.395487
	H64	H	0.393534	0.586622	0.102288
	H65	H	0.568342	0.579448	0.881156
	H66	H	0.585705	0.407161	0.099138
	H67	H	0.398759	0.405559	0.877287
	H68	H	0.582372	0.107902	0.395515
	H69	H	0.578601	0.882216	0.579564
	H70	H	0.403267	0.104886	0.573054
	H71	H	0.397572	0.879176	0.397852
	H72	H	0.906235	0.604407	0.075165
	H73	H	0.076834	0.377982	0.090156
	H74	H	0.082558	0.607033	0.895625
	H75	H	0.903909	0.380181	0.888956
	H76	H	0.083685	0.906359	0.599152
	H77	H	0.075069	0.080873	0.378999
	H78	H	0.894592	0.083409	0.601441
	H79	H	0.903731	0.907470	0.380867
	H80	H	0.604356	0.077453	0.892053
	H81	H	0.377385	0.079609	0.081030
	H82	H	0.601449	0.905520	0.073235
	H83	H	0.376721	0.906561	0.894966
	H84	H	0.602540	0.907575	0.077983
	H85	H	0.375030	0.085582	0.080295
	H86	H	0.604821	0.088574	0.901730
	H87	H	0.376306	0.902791	0.898948
	H88	H	0.906020	0.078058	0.596548
	H89	H	0.078816	0.088677	0.375420
	H90	H	0.076617	0.905848	0.597689
	H91	H	0.905419	0.904676	0.379829
	H92	H	0.081662	0.608652	0.891327
	H93	H	0.069534	0.386663	0.072227
	H94	H	0.904014	0.604026	0.071148
	H95	H	0.906344	0.385593	0.902359
	H96	H	0.399710	0.107948	0.578858
	H97	H	0.574428	0.885042	0.577160
	H98	H	0.576999	0.106211	0.394843
	H99	H	0.408252	0.882202	0.393106
	H100	H	0.571645	0.409316	0.094157
	H101	H	0.577026	0.589164	0.874451
	H102	H	0.400384	0.582470	0.098736
	H103	H	0.402400	0.397564	0.876352
	H104	H	0.100380	0.581007	0.403813
	H105	H	0.877323	0.581040	0.575748
	H106	H	0.104084	0.403687	0.577643
	H107	H	0.876859	0.403226	0.400481
	H108	H	0.901918	0.606013	0.075066
	H109	H	0.089490	0.379679	0.073402
	H110	H	0.078057	0.607168	0.894222
	H111	H	0.893547	0.379668	0.899149
	H112	H	0.080515	0.900279	0.600260
	H113	H	0.084004	0.081062	0.375800
	H114	H	0.905435	0.090534	0.600440
	H115	H	0.901855	0.905055	0.379065
	H116	H	0.598253	0.076190	0.905195
	H117	H	0.377099	0.081917	0.074733
	H118	H	0.603832	0.902445	0.077033
	H119	H	0.378785	0.908311	0.900095
	C120	C	0.370087	0.002375	0.609210
	C121	C	0.611011	0.986514	0.609472
	C122	C	0.612688	0.002532	0.366325
	C123	C	0.370644	0.985299	0.366271
	C124	C	0.610624	0.371589	-0.005038
	C125	C	0.609898	0.614587	0.979661
	C126	C	0.367927	0.615661	-0.003493
	C127	C	0.367647	0.370796	0.979727
	C128	C	-0.001426	0.614927	0.366828
	C129	C	0.981363	0.614148	0.608608
	C130	C	-0.001571	0.372809	0.608874
	C131	C	0.981160	0.373795	0.366622
	C132	C	0.869133	0.503049	0.108065
	C133	C	0.110513	0.485455	0.108937
	C134	C	0.110956	0.502487	0.865280
	C135	C	0.867943	0.485146	0.865122
	C136	C	0.112999	0.871345	0.496990
	C137	C	0.112388	0.115941	0.479123
	C138	C	0.869227	0.115890	0.496795
	C139	C	0.869495	0.872311	0.481697
	C140	C	0.498217	0.113299	0.867718
	C141	C	0.481343	0.114110	0.109402
	C142	C	0.498615	0.872679	0.108797
	C143	C	0.481497	0.872559	0.865822
	C144	C	0.366394	0.885025	0.669578
	C145	C	0.614477	0.104183	0.669565
	C146	C	0.616724	0.884973	0.306690
	C147	C	0.367536	0.103017	0.306410
	C148	C	0.671186	0.369700	0.878271
	C149	C	0.672291	0.617607	0.095857
	C150	C	0.312790	0.612529	0.876943
	C151	C	0.310962	0.372872	0.098709
	C152	C	0.880123	0.675922	0.364414
	C153	C	0.100898	0.672617	0.609196
	C154	C	0.879179	0.313397	0.610109
	C155	C	0.100137	0.313374	0.364042
	C156	C	0.879098	0.370713	0.667876
	C157	C	0.100690	0.615375	0.667280
	C158	C	0.880557	0.619574	0.305390
	C159	C	0.099386	0.370144	0.305631
	C160	C	0.368234	0.673075	0.878202
	C161	C	0.614618	0.676005	0.095813
	C162	C	0.614178	0.310315	0.878850
	C163	C	0.368083	0.313538	0.098236
	C164	C	0.672287	0.884142	0.366843
	C165	C	0.671443	0.104565	0.611125
	C166	C	0.311420	0.883713	0.609236
	C167	C	0.310242	0.103249	0.364609
	C168	C	0.863396	0.387291	0.171187
	C169	C	0.113099	0.603842	0.167969
	C170	C	0.112242	0.383656	0.807458
	C171	C	0.863706	0.602525	0.804454
	C172	C	0.173127	0.869408	0.379860
	C173	C	0.172935	0.117479	0.596086
	C174	C	0.809085	0.117093	0.379643
	C175	C	0.807716	0.869063	0.597955
	C176	C	0.378656	0.172194	0.866654
	C177	C	0.600727	0.173044	0.109786
	C178	C	0.379132	0.814476	0.110398
	C179	C	0.599645	0.811268	0.863457
	C180	C	0.380756	0.869718	0.170060
	C181	C	0.601042	0.115302	0.167038
	C182	C	0.379786	0.116602	0.807315
	C183	C	0.599859	0.868674	0.805681
	C184	C	0.866319	0.175936	0.379787
	C185	C	0.115840	0.176678	0.595712
	C186	C	0.116329	0.809989	0.380883
	C187	C	0.864820	0.810129	0.597444
	C188	C	0.168469	0.382972	0.866995
	C189	C	0.168956	0.604503	0.108333
	C190	C	0.807383	0.385869	0.111676
	C191	C	0.807368	0.603199	0.863593
	C192	C	0.395805	0.084665	0.584345
	C193	C	0.584949	0.904957	0.584242
	C194	C	0.587016	0.084981	0.389952
	C195	C	0.396590	0.903217	0.391263
	C196	C	0.584905	0.396834	0.076376
	C197	C	0.583310	0.588983	0.899002
	C198	C	0.391346	0.593126	0.079251
	C199	C	0.391713	0.394095	0.897438
	C200	C	0.081056	0.588559	0.392046
	C201	C	0.898015	0.589480	0.584210
	C202	C	0.081414	0.398002	0.584425
	C203	C	0.899120	0.399877	0.392277
	C204	C	0.896394	0.583637	0.081337
	C205	C	0.085724	0.403008	0.085402
	C206	C	0.087293	0.585764	0.887431
	C207	C	0.893757	0.403118	0.889805
	C208	C	0.087335	0.896849	0.577937
	C209	C	0.086586	0.090737	0.397916
	C210	C	0.894785	0.091182	0.578434
	C211	C	0.896085	0.898222	0.400915
	C212	C	0.580973	0.087956	0.892408
	C213	C	0.398217	0.089369	0.085561
	C214	C	0.581106	0.897801	0.083309
	C215	C	0.398886	0.898398	0.891046
	Zn216	Zn	0.490589	-0.005905	0.738185
	Zn217	Zn	0.491334	-0.006790	0.237271
	Zn218	Zn	0.739903	0.493835	-0.012750
	Zn219	Zn	0.238885	0.493673	-0.012190
	Zn220	Zn	-0.009970	0.742855	0.488362
	Zn221	Zn	-0.009611	0.245408	0.487607
	Zn222	Zn	-0.010462	0.493533	0.736943
	Zn223	Zn	-0.010151	0.495156	0.237859
	Zn224	Zn	0.489783	0.744826	-0.012269
	Zn225	Zn	0.489902	0.241689	-0.011988
	Zn226	Zn	0.740330	-0.005587	0.489390
	Zn227	Zn	0.241797	-0.006123	0.487319
	N228	N	0.402010	0.959984	0.669624
	N229	N	0.577921	0.029665	0.669011
	N230	N	0.580593	0.959744	0.305969
	N231	N	0.404293	0.028409	0.307128
	N232	N	0.669257	0.406965	0.951575
	N233	N	0.669583	0.580230	0.022701
	N234	N	0.312115	0.577988	0.951672
	N235	N	0.310148	0.407364	0.023840
	N236	N	0.954522	0.673011	0.401924
	N237	N	0.025645	0.671758	0.573434
	N238	N	0.954562	0.314397	0.574304
	N239	N	0.025660	0.315510	0.401317
	N240	N	0.954317	0.406861	0.667382
	N241	N	0.025017	0.580023	0.667108
	N242	N	0.955273	0.582329	0.306924
	N243	N	0.024511	0.407286	0.307024
	N244	N	0.401446	0.675530	0.953758
	N245	N	0.576679	0.674459	0.022492
	N246	N	0.577572	0.311263	0.952737
	N247	N	0.402509	0.311974	0.023327
	N248	N	0.670054	0.958382	0.403151
	N249	N	0.669645	0.030396	0.574645
	N250	N	0.313544	0.957916	0.572293
	N251	N	0.312155	0.029041	0.401220
	N252	N	0.900985	0.461199	0.169227
	N253	N	0.077637	0.528732	0.168573
	N254	N	0.077500	0.459057	0.806045
	N255	N	0.900483	0.528046	0.805117
	N256	N	0.171229	0.906893	0.453049
	N257	N	0.171028	0.080536	0.522538
	N258	N	0.810841	0.080475	0.453350
	N259	N	0.810382	0.907076	0.524901
	N260	N	0.453370	0.170436	0.903483
	N261	N	0.525163	0.172484	0.074632
	N262	N	0.453637	0.815904	0.073117
	N263	N	0.524884	0.813575	0.900201
	N264	N	0.456168	0.905048	0.169482
	N265	N	0.525806	0.079449	0.166937
	N266	N	0.455201	0.080772	0.807878
	N267	N	0.525193	0.906009	0.806885
	N268	N	0.902962	0.175295	0.453627
	N269	N	0.078862	0.175957	0.522046
	N270	N	0.079743	0.811033	0.454752
	N271	N	0.902700	0.812120	0.524154
	N272	N	0.168116	0.457903	0.901895
	N273	N	0.167755	0.530001	0.072477
	N274	N	0.810876	0.458768	0.072817
	N275	N	0.809532	0.529096	0.900489
	O276	O	0.173053	1.106795	-0.127294
	H277	H	0.190191	1.120708	-0.119549
	H278	H	0.167309	1.105612	-0.130167
	O279	O	0.689232	0.474031	0.279866
	H280	H	0.694868	0.458900	0.271244
	H281	H	0.692326	0.464900	0.277910
	O282	O	1.211960	-0.233284	0.947355
	H283	H	1.210193	-0.229788	0.903043
	H284	H	1.244565	-0.259855	0.946459
	O285	O	0.274514	0.502764	0.357024
	H286	H	0.287536	0.517769	0.355352
	H287	H	0.261613	0.509292	0.337070
	O288	O	0.343591	0.668551	0.478301
	H289	H	0.356702	0.682066	0.469969
	H290	H	0.326418	0.667818	0.466159
	O291	O	0.275444	0.435723	0.493042
	H292	H	0.277240	0.431691	0.479739
	H293	H	0.267860	0.418212	0.485378
	O294	O	0.776936	-0.066205	0.925636
	H295	H	0.770599	-0.061177	0.928611
	H296	H	0.778087	-0.064012	0.931756
	O297	O	0.512582	0.711244	0.704941
	H298	H	0.519828	0.703512	0.718655
	H299	H	0.532749	0.722872	0.720121
	O300	O	-0.202050	0.186782	0.796550
	H301	H	-0.191978	0.174799	0.780432
	H302	H	-0.178184	0.164130	0.795789
	O303	O	0.476006	0.416283	0.606013
	H304	H	0.476255	0.438389	0.617081
	H305	H	0.473671	0.402986	0.592876
	O306	O	0.874587	-0.125605	0.778387
	H307	H	0.887163	-0.132855	0.794505
	H308	H	0.875469	-0.138989	0.783985
	O309	O	0.720026	0.554003	0.429812
	H310	H	0.712326	0.549115	0.413877
	H311	H	0.726804	0.547068	0.423789
	O312	O	0.510826	0.622297	0.381579
	H313	H	0.499893	0.616463	0.389160
	H314	H	0.498708	0.622003	0.375816
	O315	O	0.474418	1.358313	0.705859
	H316	H	0.468862	1.359819	0.720107
	H317	H	0.473089	1.352360	0.690725
	O318	O	0.301716	0.685675	0.678572
	H319	H	0.314366	0.665372	0.653019
	H320	H	0.328376	0.667462	0.669801
	O321	O	0.197453	0.783564	0.778531
	H322	H	0.230907	0.753482	0.744427
	H323	H	0.191377	0.821245	0.773851
	O324	O	0.772271	1.020950	-0.226773
	H325	H	0.770957	1.009807	-0.245953
	H326	H	0.774571	1.008132	-0.239471
	O327	O	-0.119543	-0.193923	1.000973
	H328	H	-0.118137	-0.195229	1.012066
	H329	H	-0.130588	-0.184498	0.992809
	O330	O	0.301697	0.299809	0.469600
	H331	H	0.282645	0.288328	0.445760
	H332	H	0.296819	0.303050	0.489505
	O333	O	0.114307	0.199877	0.854675
	H334	H	0.115330	0.184322	0.848691
	H335	H	0.117541	0.201365	0.865075
	O336	O	0.703173	0.282591	0.271811
	H337	H	0.660888	0.287366	0.270582
	H338	H	0.722099	0.263343	0.249367
	O339	O	1.050021	0.052653	0.751477
	H340	H	1.042782	0.041274	0.752005
	H341	H	1.042625	0.024334	0.749986
	O342	O	-0.017396	-0.120341	0.018083
	H343	H	-0.017298	-0.115829	0.013333
	H344	H	-0.019131	-0.116349	0.007872
	O345	O	0.036640	0.782805	0.843802
	H346	H	0.056855	0.758835	0.823887
	H347	H	0.044056	0.784868	0.849851
	O348	O	0.454904	0.527409	0.650802
	H349	H	0.445927	0.513321	0.648964
	H350	H	0.466421	0.519506	0.646067
	O351	O	0.857315	0.784256	0.201553
	H352	H	0.881567	0.777489	0.196647
	H353	H	0.839701	0.756803	0.214974
	O354	O	0.020097	0.209612	1.203108
	H355	H	0.003268	0.213131	1.173817
	H356	H	0.009581	0.223790	1.219848
	O357	O	0.719695	0.720791	0.258025
	H358	H	0.698866	0.735942	0.270223
	H359	H	0.727866	0.703558	0.262325
	O360	O	0.294398	0.285619	0.496533
	H361	H	0.294583	0.280329	0.494994
	H362	H	0.284119	0.273261	0.506710
	O363	O	-0.128730	-0.100401	-0.007126
	H364	H	-0.135339	-0.099963	0.010753
	H365	H	-0.130641	-0.115162	-0.000420
	O366	O	0.678130	0.414027	0.592403
	H367	H	0.679146	0.422079	0.580065
	H368	H	0.672058	0.419497	0.600198
	O369	O	1.040946	-0.047949	-0.133608
	H370	H	1.047851	-0.053602	-0.129697
	H371	H	1.046487	-0.047351	-0.133843
	O372	O	1.201730	1.011129	0.175165
	H373	H	1.191497	1.001862	0.172515
	H374	H	1.212274	0.998475	0.186342
	O375	O	0.805995	0.179458	0.178566
	H376	H	0.820539	0.169267	0.153139
	H377	H	0.814484	0.174413	0.174524
	O378	O	0.470486	0.487795	0.266440
	H379	H	0.469318	0.497423	0.269726
	H380	H	0.471537	0.494519	0.261306
	O381	O	-0.190154	0.999546	1.034514
	H382	H	-0.189685	1.007190	1.039877
	H383	H	-0.193812	1.003582	1.037901
	O384	O	1.136351	-0.119123	1.052482
	H385	H	1.133383	-0.089323	1.032924
	H386	H	1.154063	-0.135269	1.035188
	O387	O	0.783045	1.180552	-0.015069
	H388	H	0.767200	1.192578	-0.032518
	H389	H	0.776100	1.181764	-0.047138
	O390	O	0.702763	0.283473	0.460291
	H391	H	0.723267	0.272141	0.453248
	H392	H	0.706931	0.281994	0.439842
	O393	O	0.554003	0.362978	0.435921
	H394	H	0.548869	0.369681	0.436729
	H395	H	0.555914	0.354721	0.441154
	O396	O	0.345478	1.603175	1.388634
	H397	H	0.336072	1.615302	1.388641
	H398	H	0.345241	1.599260	1.376178
	O399	O	0.194667	0.047509	1.039191
	H400	H	0.210764	0.062887	1.049280
	H401	H	0.180429	0.067004	1.036415
	O402	O	0.301710	0.546087	0.475462
	H403	H	0.303234	0.530669	0.472488
	H404	H	0.291880	0.543666	0.457634
	O405	O	0.975214	0.130510	0.952836
	H406	H	0.987488	0.126612	0.944514
	H407	H	0.972211	0.131154	0.946980
	O408	O	-0.073559	0.168183	0.043612
	H409	H	-0.074218	0.173100	0.028376
	H410	H	-0.084692	0.170699	0.027548
	O411	O	0.702587	0.525851	0.707989
	H412	H	0.707139	0.542279	0.698379
	H413	H	0.728612	0.521654	0.725969
	O414	O	0.889763	0.084439	0.937989
	H415	H	0.890480	0.089313	0.931494
	H416	H	0.886726	0.091507	0.927825
	O417	O	0.311611	0.509061	0.665711
	H418	H	0.302220	0.509394	0.669777
	H419	H	0.312840	0.507838	0.654114
	O420	O	0.475838	0.697837	0.534110
	H421	H	0.475544	0.695895	0.552953
	H422	H	0.481912	0.690797	0.553877
	O423	O	0.192264	0.198297	1.197002
	H424	H	0.183295	0.194072	1.206523
	H425	H	0.161457	0.180923	1.200750
	O426	O	0.555362	0.287608	0.542712
	H427	H	0.568369	0.287077	0.529713
	H428	H	0.561913	0.295089	0.537544
	O429	O	0.777433	0.963236	1.200017
	H430	H	0.780307	0.967953	1.199164
	H431	H	0.760542	0.943667	1.212700
	O432	O	0.602456	0.481142	0.506875
	H433	H	0.614292	0.478403	0.500241
	H434	H	0.594485	0.460475	0.495939
	O435	O	0.170040	0.807046	0.166742
	H436	H	0.153872	0.810123	0.141129
	H437	H	0.153132	0.835607	0.155953
	O438	O	0.211685	0.216307	0.023767
	H439	H	0.227581	0.229359	0.051503
	H440	H	0.221625	0.225982	0.037639
	O441	O	0.284261	0.642280	0.279091
	H442	H	0.272101	0.672602	0.266417
	H443	H	0.302659	0.644145	0.264345
	O444	O	0.404192	0.709416	0.267263
	H445	H	0.396052	0.740101	0.238654
	H446	H	0.415225	0.702412	0.295337
	O447	O	0.203134	0.956850	0.767171
	H448	H	0.227652	0.965733	0.765739
	H449	H	0.200212	0.956416	0.777934
	O450	O	-0.071613	1.048803	1.217656
	H451	H	-0.077217	1.047552	1.213184
	H452	H	-0.077840	1.056270	1.220961
	O453	O	0.477744	0.318496	0.326711
	H454	H	0.482808	0.312293	0.366248
	H455	H	0.478360	0.324592	0.317176
	O456	O	-0.042836	0.210352	0.766777
	H457	H	-0.034254	0.222829	0.740899
	H458	H	-0.031562	0.200853	0.771555
	O459	O	1.048716	0.937001	0.226295
	H460	H	1.030301	0.940134	0.230361
	H461	H	1.046040	0.932730	0.224379
	O462	O	0.580952	0.672941	0.342278
	H463	H	0.573197	0.674000	0.351522
	H464	H	0.568713	0.663399	0.336622
	O465	O	0.683386	-0.310904	-0.316020
	H466	H	0.689895	-0.302547	-0.368829
	H467	H	0.680841	-0.323388	-0.301433
	O468	O	0.522531	0.411507	0.306532
	H469	H	0.503503	0.422935	0.320755
	H470	H	0.519915	0.410352	0.300046
	O471	O	0.277711	0.342273	0.702385
	H472	H	0.298700	0.335937	0.695588
	H473	H	0.278726	0.369426	0.706411
	O474	O	0.539437	0.389406	0.675408
	H475	H	0.551544	0.380078	0.680594
	H476	H	0.540669	0.384878	0.671236
	O477	O	0.478671	0.327120	1.458007
	H478	H	0.468033	0.333067	1.463692
	H479	H	0.484290	0.347212	1.462817
	O480	O	0.690931	0.701826	0.521831
	H481	H	0.683197	0.709551	0.501628
	H482	H	0.698799	0.694978	0.504074
	O483	O	0.964012	0.777208	0.856416
	H484	H	0.972739	0.777245	0.854370
	H485	H	0.969845	0.766960	0.857301
	O486	O	1.060325	0.057009	0.963705
	H487	H	1.053130	0.070152	0.970585
	H488	H	1.050861	0.059201	0.959661
	O489	O	0.963141	0.859488	0.148368
	H490	H	0.970146	0.858905	0.131692
	H491	H	0.964049	0.846567	0.145140
