data_Molecule from HDF5

_cell_length_a		16.270834
_cell_length_b		16.098539
_cell_length_c		16.365933
_cell_angle_alpha	89.548036
_cell_angle_beta	89.732670
_cell_angle_gamma	89.966294
_symmetry_space_group_name_H-M	'P 1'
_symmetry_Int_Tables_number		1

loop_
	_symmetry_equiv_pos_as_xyz
	x,y,z

loop_
	_atom_site_label
	_atom_site_type_symbol
	_atom_site_fract_x
	_atom_site_fract_y
	_atom_site_fract_z
	H0	H	0.399728	0.831975	0.717530
	H1	H	0.605151	0.158941	0.709935
	H2	H	0.608933	0.830808	0.279432
	H3	H	0.402212	0.157524	0.278960
	H4	H	0.725031	0.393525	0.833317
	H5	H	0.727922	0.597483	0.155040
	H6	H	0.293409	0.596996	0.831839
	H7	H	0.286579	0.388851	0.153897
	H8	H	0.842347	0.709730	0.395013
	H9	H	0.168787	0.708906	0.591353
	H10	H	0.842565	0.281933	0.593051
	H11	H	0.168759	0.277150	0.395317
	H12	H	0.847028	0.389109	0.715673
	H13	H	0.170226	0.594120	0.705920
	H14	H	0.845745	0.599504	0.273130
	H15	H	0.168696	0.389839	0.274852
	H16	H	0.409088	0.712550	0.833278
	H17	H	0.607905	0.709560	0.157877
	H18	H	0.608212	0.278935	0.833650
	H19	H	0.407938	0.279470	0.157487
	H20	H	0.722106	0.830370	0.395140
	H21	H	0.720577	0.157759	0.595180
	H22	H	0.288563	0.830435	0.600549
	H23	H	0.291487	0.158803	0.398583
	H24	H	0.903847	0.332194	0.213647
	H25	H	0.112557	0.656929	0.210219
	H26	H	0.112028	0.330949	0.778451
	H27	H	0.909332	0.658495	0.776384
	H28	H	0.226308	0.890724	0.336595
	H29	H	0.221153	0.094820	0.658459
	H30	H	0.787582	0.097616	0.334134
	H31	H	0.786888	0.889420	0.656854
	H32	H	0.343786	0.210247	0.898027
	H33	H	0.669983	0.207665	0.095207
	H34	H	0.343706	0.776734	0.096704
	H35	H	0.669835	0.781506	0.897280
	H36	H	0.343967	0.889131	0.215426
	H37	H	0.667728	0.095721	0.212936
	H38	H	0.343898	0.099574	0.779826
	H39	H	0.665570	0.889952	0.773773
	H40	H	0.904989	0.211716	0.332926
	H41	H	0.101917	0.207550	0.658414
	H42	H	0.106470	0.780696	0.333206
	H43	H	0.905882	0.776411	0.657512
	H44	H	0.223343	0.330613	0.894959
	H45	H	0.222267	0.658447	0.091099
	H46	H	0.793044	0.330383	0.096548
	H47	H	0.791184	0.657838	0.890090
	H48	H	0.410356	0.114368	0.593563
	H49	H	0.601469	0.875924	0.582728
	H50	H	0.604775	0.114346	0.402223
	H51	H	0.418036	0.877579	0.406492
	H52	H	0.597337	0.403793	0.109357
	H53	H	0.594737	0.594608	0.879323
	H54	H	0.411833	0.578757	0.108976
	H55	H	0.412380	0.411411	0.879795
	H56	H	0.120268	0.580603	0.401649
	H57	H	0.891612	0.583057	0.584333
	H58	H	0.122033	0.409690	0.588746
	H59	H	0.891799	0.408833	0.401646
	H60	H	0.128515	0.394160	0.594159
	H61	H	0.891009	0.580164	0.588783
	H62	H	0.124436	0.587029	0.395178
	H63	H	0.889051	0.402588	0.400163
	H64	H	0.417906	0.584771	0.109228
	H65	H	0.608150	0.588449	0.877454
	H66	H	0.600779	0.398717	0.111851
	H67	H	0.424545	0.399761	0.880770
	H68	H	0.587573	0.110440	0.396676
	H69	H	0.593831	0.874350	0.596837
	H70	H	0.417797	0.110139	0.587002
	H71	H	0.414743	0.877311	0.408056
	H72	H	0.917366	0.611303	0.081230
	H73	H	0.100028	0.376734	0.083713
	H74	H	0.104502	0.613327	0.900487
	H75	H	0.917785	0.376720	0.900582
	H76	H	0.079043	0.907876	0.604720
	H77	H	0.101032	0.082345	0.380596
	H78	H	0.921822	0.080232	0.606212
	H79	H	0.907085	0.898155	0.375877
	H80	H	0.624512	0.086596	0.900147
	H81	H	0.389079	0.090366	0.086417
	H82	H	0.620720	0.911339	0.091423
	H83	H	0.391082	0.902641	0.912150
	H84	H	0.625496	0.898253	0.093117
	H85	H	0.391706	0.081124	0.086460
	H86	H	0.622256	0.084243	0.904420
	H87	H	0.391187	0.911222	0.903539
	H88	H	0.911517	0.097913	0.614292
	H89	H	0.094499	0.082752	0.383137
	H90	H	0.098952	0.880917	0.618170
	H91	H	0.910105	0.912832	0.381837
	H92	H	0.100984	0.614717	0.894013
	H93	H	0.096332	0.376939	0.087531
	H94	H	0.918215	0.611733	0.083743
	H95	H	0.920516	0.378713	0.905679
	H96	H	0.407875	0.112371	0.583342
	H97	H	0.585818	0.880813	0.583652
	H98	H	0.592979	0.107463	0.413791
	H99	H	0.415266	0.875606	0.405021
	H100	H	0.603312	0.404796	0.111077
	H101	H	0.597672	0.580077	0.883168
	H102	H	0.410065	0.587140	0.112173
	H103	H	0.409790	0.395963	0.874348
	H104	H	0.121900	0.589255	0.404251
	H105	H	0.888673	0.585569	0.588466
	H106	H	0.122892	0.395785	0.577112
	H107	H	0.891019	0.404377	0.406150
	H108	H	0.920040	0.611054	0.082048
	H109	H	0.095021	0.378192	0.081333
	H110	H	0.096693	0.611368	0.900304
	H111	H	0.915420	0.377016	0.905888
	H112	H	0.113068	0.913601	0.613086
	H113	H	0.098329	0.087314	0.379990
	H114	H	0.900353	0.078564	0.611586
	H115	H	0.921534	0.901930	0.381021
	H116	H	0.622326	0.081514	0.900636
	H117	H	0.388458	0.086129	0.094172
	H118	H	0.620056	0.902008	0.081202
	H119	H	0.386910	0.899753	0.901180
	C120	C	0.382442	0.003630	0.618855
	C121	C	0.624445	0.985550	0.616372
	C122	C	0.626250	0.002805	0.374186
	C123	C	0.384682	0.985189	0.376211
	C124	C	0.629927	0.372800	0.003617
	C125	C	0.629978	0.617125	0.986917
	C126	C	0.385462	0.615313	0.003089
	C127	C	0.385479	0.372230	0.985315
	C128	C	0.015126	0.617147	0.370570
	C129	C	0.997986	0.613440	0.614816
	C130	C	0.016564	0.371021	0.616979
	C131	C	0.997941	0.373562	0.372688
	C132	C	0.886739	0.503849	0.114919
	C133	C	0.128444	0.485261	0.113855
	C134	C	0.130370	0.504112	0.870847
	C135	C	0.887882	0.485556	0.872845
	C136	C	0.127598	0.871631	0.505309
	C137	C	0.126861	0.114647	0.487902
	C138	C	0.881904	0.116411	0.503844
	C139	C	0.882942	0.872241	0.486492
	C140	C	0.515291	0.115865	0.873747
	C141	C	0.497249	0.115656	0.118007
	C142	C	0.514854	0.872543	0.118594
	C143	C	0.496952	0.874185	0.874940
	C144	C	0.381914	0.880567	0.677776
	C145	C	0.624355	0.109440	0.671783
	C146	C	0.627328	0.879707	0.317678
	C147	C	0.383779	0.108500	0.318160
	C148	C	0.686559	0.373955	0.881910
	C149	C	0.688231	0.616658	0.107315
	C150	C	0.330798	0.616253	0.880776
	C151	C	0.326799	0.371332	0.106216
	C152	C	0.891792	0.672712	0.373708
	C153	C	0.120448	0.670543	0.611616
	C154	C	0.892566	0.317244	0.614863
	C155	C	0.120280	0.315513	0.374399
	C156	C	0.894985	0.370852	0.675602
	C157	C	0.121125	0.613452	0.668702
	C158	C	0.893540	0.617966	0.312833
	C159	C	0.120121	0.371626	0.314666
	C160	C	0.388441	0.673567	0.881392
	C161	C	0.628365	0.672631	0.108813
	C162	C	0.628408	0.316909	0.881972
	C163	C	0.386972	0.316202	0.107965
	C164	C	0.683758	0.879590	0.375250
	C165	C	0.681775	0.108993	0.614511
	C166	C	0.326624	0.879558	0.619573
	C167	C	0.328434	0.109029	0.377557
	C168	C	0.885444	0.381063	0.174256
	C169	C	0.130228	0.608187	0.171152
	C170	C	0.130420	0.380154	0.816179
	C171	C	0.888746	0.609019	0.814624
	C172	C	0.186875	0.871652	0.384433
	C173	C	0.182438	0.113742	0.609854
	C174	C	0.825919	0.116912	0.382308
	C175	C	0.825563	0.870925	0.608314
	C176	C	0.392715	0.172538	0.877290
	C177	C	0.620593	0.170435	0.115500
	C178	C	0.392684	0.814711	0.117602
	C179	C	0.620308	0.818649	0.876299
	C180	C	0.392650	0.870799	0.176406
	C181	C	0.619459	0.114819	0.174389
	C182	C	0.392794	0.117531	0.818031
	C183	C	0.618321	0.872679	0.815044
	C184	C	0.884440	0.173582	0.381629
	C185	C	0.123205	0.170256	0.609750
	C186	C	0.126859	0.816988	0.382685
	C187	C	0.884848	0.814623	0.608604
	C188	C	0.186124	0.380166	0.873945
	C189	C	0.185090	0.608848	0.111836
	C190	C	0.830538	0.380054	0.115567
	C191	C	0.830292	0.608923	0.871456
	C192	C	0.405444	0.089878	0.594826
	C193	C	0.600626	0.899385	0.594171
	C194	C	0.602087	0.088509	0.397430
	C195	C	0.408774	0.899089	0.399876
	C196	C	0.607127	0.395566	0.088730
	C197	C	0.606920	0.594328	0.901916
	C198	C	0.407133	0.590820	0.087962
	C199	C	0.408945	0.395601	0.900315
	C200	C	0.100129	0.592780	0.393520
	C201	C	0.912413	0.589960	0.593468
	C202	C	0.102052	0.393226	0.593552
	C203	C	0.912775	0.398175	0.395844
	C204	C	0.911275	0.589160	0.089841
	C205	C	0.104184	0.399534	0.091028
	C206	C	0.107449	0.590704	0.891973
	C207	C	0.911118	0.399783	0.897125
	C208	C	0.103951	0.894212	0.589973
	C209	C	0.104518	0.091047	0.403279
	C210	C	0.904641	0.092471	0.588657
	C211	C	0.906169	0.896992	0.401769
	C212	C	0.600705	0.091436	0.895435
	C213	C	0.411931	0.092652	0.095572
	C214	C	0.599917	0.896801	0.095271
	C215	C	0.411811	0.897690	0.898842
	Zn216	Zn	0.504180	-0.004984	0.745376
	Zn217	Zn	0.505256	-0.005645	0.246825
	Zn218	Zn	0.758974	0.494330	-0.005851
	Zn219	Zn	0.256242	0.494491	-0.006971
	Zn220	Zn	0.005548	0.743478	0.494939
	Zn221	Zn	0.005157	0.244180	0.494610
	Zn222	Zn	0.008723	0.493769	0.743882
	Zn223	Zn	0.007489	0.494720	0.242278
	Zn224	Zn	0.506717	0.745040	-0.003950
	Zn225	Zn	0.507625	0.243638	-0.004497
	Zn226	Zn	0.753786	-0.005897	0.495571
	Zn227	Zn	0.256345	-0.006871	0.497471
	N228	N	0.415872	0.958876	0.677458
	N229	N	0.589381	0.031776	0.672962
	N230	N	0.592234	0.957554	0.316887
	N231	N	0.418076	0.030490	0.317243
	N232	N	0.687611	0.407816	0.958786
	N233	N	0.689402	0.583125	0.030395
	N234	N	0.328859	0.580601	0.957386
	N235	N	0.325550	0.405277	0.028910
	N236	N	0.968552	0.672505	0.408716
	N237	N	0.042978	0.670540	0.578607
	N238	N	0.969120	0.317120	0.579020
	N239	N	0.043372	0.316557	0.409751
	N240	N	0.973183	0.403078	0.677572
	N241	N	0.044082	0.578408	0.670589
	N242	N	0.971266	0.584141	0.310859
	N243	N	0.042986	0.406816	0.313611
	N244	N	0.421753	0.673223	0.958420
	N245	N	0.592946	0.673111	0.032643
	N246	N	0.593991	0.315838	0.958850
	N247	N	0.422866	0.316662	0.031789
	N248	N	0.683107	0.956995	0.409943
	N249	N	0.682125	0.030786	0.580833
	N250	N	0.326728	0.956941	0.583586
	N251	N	0.328872	0.031143	0.412865
	N252	N	0.919605	0.458999	0.174083
	N253	N	0.095729	0.530156	0.172832
	N254	N	0.096536	0.458341	0.813922
	N255	N	0.923900	0.531274	0.815529
	N256	N	0.187661	0.904742	0.461654
	N257	N	0.184748	0.079948	0.532974
	N258	N	0.824251	0.082101	0.459220
	N259	N	0.824148	0.905935	0.531300
	N260	N	0.470045	0.171906	0.911100
	N261	N	0.543620	0.171133	0.081067
	N262	N	0.469670	0.815168	0.082581
	N263	N	0.544187	0.819666	0.913163
	N264	N	0.469795	0.905713	0.177312
	N265	N	0.541672	0.081422	0.176122
	N266	N	0.469978	0.082904	0.815726
	N267	N	0.540569	0.906419	0.814134
	N268	N	0.918471	0.173591	0.458329
	N269	N	0.089292	0.170829	0.532907
	N270	N	0.090671	0.816740	0.458666
	N271	N	0.919508	0.815031	0.531815
	N272	N	0.186420	0.458373	0.907064
	N273	N	0.184130	0.531444	0.077038
	N274	N	0.830803	0.457639	0.079367
	N275	N	0.829685	0.531159	0.906957
	O276	O	-0.164965	-0.052499	0.081976
	H277	H	-0.185823	-0.058985	0.088694
	H278	H	-0.148604	-0.053557	0.098211
	O279	O	0.674146	0.443485	0.504902
	H280	H	0.669858	0.439791	0.507410
	H281	H	0.669440	0.446945	0.501664
	O282	O	0.975858	-0.094150	-0.022216
	H283	H	0.976095	-0.083111	-0.013872
	H284	H	0.978265	-0.096668	-0.033723
	O285	O	0.038045	0.937860	0.055257
	H286	H	0.032339	0.932956	0.040448
	H287	H	0.047645	0.936517	0.055877
	O288	O	0.401689	0.578192	0.429618
	H289	H	0.389750	0.572492	0.439473
	H290	H	0.393454	0.587721	0.442099
	O291	O	0.598790	0.537895	0.528650
	H292	H	0.606930	0.551379	0.527840
	H293	H	0.594888	0.538522	0.513359
	O294	O	0.443504	1.339560	0.644308
	H295	H	0.426429	1.329452	0.640734
	H296	H	0.445600	1.344927	0.646186
	O297	O	0.504818	-0.438365	-0.460400
	H298	H	0.515604	-0.453468	-0.458992
	H299	H	0.501796	-0.436705	-0.469655
	O300	O	0.621144	0.618785	0.658876
	H301	H	0.613582	0.624090	0.669856
	H302	H	0.617301	0.622990	0.667377
	O303	O	0.006179	1.092379	0.979075
	H304	H	0.012548	1.083577	0.984126
	H305	H	0.000047	1.103726	0.995175
	O306	O	-0.571481	1.573689	0.509409
	H307	H	-0.555614	1.562117	0.511623
	H308	H	-0.574311	1.569481	0.495658
	O309	O	0.954695	-0.064645	-0.030430
	H310	H	0.962437	-0.063629	-0.028719
	H311	H	0.957245	-0.059229	-0.037571
	O312	O	0.138114	-0.014878	0.907276
	H313	H	0.146035	-0.008059	0.907134
	H314	H	0.138018	-0.007304	0.902880
	O315	O	0.118373	1.125329	1.026703
	H316	H	0.136940	1.134783	1.027747
	H317	H	0.112780	1.125894	1.028181
	O318	O	0.636988	0.363234	0.539566
	H319	H	0.637529	0.361855	0.549960
	H320	H	0.640408	0.364080	0.542161
	O321	O	0.455439	0.473198	0.353099
	H322	H	0.459511	0.476457	0.351685
	H323	H	0.455340	0.459281	0.357772
	O324	O	0.365753	0.379894	0.515244
	H325	H	0.369645	0.394406	0.511528
	H326	H	0.362165	0.374146	0.508636
	O327	O	-0.093061	1.011622	0.933539
	H328	H	-0.094014	1.008466	0.946338
	H329	H	-0.095112	1.000927	0.937353
	O330	O	0.516849	0.505543	0.552080
	H331	H	0.513402	0.507186	0.545470
	H332	H	0.500705	0.512149	0.564185
	O333	O	0.008240	0.862110	1.197277
	H334	H	-0.005806	0.858171	1.192937
	H335	H	0.003155	0.833269	1.210280
	O336	O	0.875650	0.974600	0.960279
	H337	H	0.875937	0.981682	0.952550
	H338	H	0.872938	0.969325	0.968336
	O339	O	0.460346	0.509912	0.348079
	H340	H	0.441237	0.510808	0.354895
	H341	H	0.476051	0.523155	0.338361
	O342	O	1.069372	0.049819	-0.089988
	H343	H	1.051982	0.058226	-0.090499
	H344	H	1.067514	0.047390	-0.081473
	O345	O	0.531053	0.407093	0.537849
	H346	H	0.530728	0.401393	0.550052
	H347	H	0.543255	0.417270	0.545140
	O348	O	1.007539	1.159076	1.100472
	H349	H	1.013964	1.147254	1.089311
	H350	H	0.987647	1.167702	1.090172
	O351	O	1.085715	1.053119	0.165764
	H352	H	1.080851	1.045533	0.163849
	H353	H	1.079253	1.058071	0.177184
	O354	O	0.361735	0.541883	0.531901
	H355	H	0.379028	0.541730	0.533714
	H356	H	0.355995	0.518363	0.526406
	O357	O	0.544763	0.448102	0.431261
	H358	H	0.553204	0.437867	0.426880
	H359	H	0.540615	0.443032	0.431561
	O360	O	-0.018833	-0.045869	0.054574
	H361	H	-0.017147	-0.056570	0.069843
	H362	H	-0.020393	-0.039880	0.045229
	O363	O	0.554700	0.445495	0.385980
	H364	H	0.565267	0.452129	0.372998
	H365	H	0.552107	0.445246	0.395609
	O366	O	-0.090480	0.003066	0.929083
	H367	H	-0.087287	0.011842	0.929626
	H368	H	-0.102487	0.003121	0.935194
	O369	O	0.447145	0.628325	0.383096
	H370	H	0.450999	0.624253	0.373740
	H371	H	0.431194	0.630889	0.379174
	O372	O	0.648655	0.362635	0.510844
	H373	H	0.642951	0.362433	0.522936
	H374	H	0.647858	0.372734	0.511981
	O375	O	0.458509	0.466053	0.440064
	H376	H	0.463396	0.488129	0.430166
	H377	H	0.471404	0.475641	0.434359
	O378	O	0.353957	0.569286	0.589040
	H379	H	0.339753	0.566062	0.606799
	H380	H	0.348360	0.556441	0.560394
	O381	O	0.697065	0.677391	0.562584
	H382	H	0.692045	0.682489	0.567296
	H383	H	0.709181	0.695611	0.559953
	O384	O	0.045401	0.921363	-0.097165
	H385	H	0.026195	0.928658	-0.105629
	H386	H	0.037421	0.920074	-0.098597
	O387	O	0.986365	0.055408	0.956789
	H388	H	0.987873	0.063738	0.940662
	H389	H	0.994701	0.051318	0.950020
	O390	O	-0.113858	0.843434	0.129267
	H391	H	-0.105593	0.840285	0.130059
	H392	H	-0.115762	0.848209	0.113512
	O393	O	1.056403	1.000726	0.069616
	H394	H	1.055703	0.995157	0.077669
	H395	H	1.054979	1.001035	0.077322
	O396	O	0.969196	0.141694	0.806411
	H397	H	0.971528	0.151466	0.793999
	H398	H	0.973696	0.146423	0.823828
	O399	O	0.095203	1.091965	1.048180
	H400	H	0.083767	1.094312	1.045451
	H401	H	0.099709	1.100600	1.052278
	O402	O	1.052643	0.930965	0.856958
	H403	H	1.043995	0.924527	0.858185
	H404	H	1.063764	0.927808	0.841541
	O405	O	0.577010	0.533874	0.335659
	H406	H	0.583955	0.532514	0.339646
	H407	H	0.577259	0.529939	0.327956
