data_Molecule from HDF5

_cell_length_a		16.281385
_cell_length_b		16.330178
_cell_length_c		16.244137
_cell_angle_alpha	89.935947
_cell_angle_beta	89.801815
_cell_angle_gamma	89.996803
_symmetry_space_group_name_H-M	'P 1'
_symmetry_Int_Tables_number		1

loop_
	_symmetry_equiv_pos_as_xyz
	x,y,z

loop_
	_atom_site_label
	_atom_site_type_symbol
	_atom_site_fract_x
	_atom_site_fract_y
	_atom_site_fract_z
	H0	H	0.397489	0.836244	0.722555
	H1	H	0.602128	0.159011	0.721338
	H2	H	0.603787	0.836615	0.284153
	H3	H	0.398771	0.158422	0.287702
	H4	H	0.715843	0.395263	0.842808
	H5	H	0.713490	0.600733	0.166180
	H6	H	0.278971	0.600251	0.840914
	H7	H	0.279685	0.396078	0.167029
	H8	H	0.837707	0.717103	0.402784
	H9	H	0.159089	0.714987	0.610398
	H10	H	0.837744	0.276549	0.607726
	H11	H	0.159299	0.277976	0.396806
	H12	H	0.835844	0.392870	0.722171
	H13	H	0.158509	0.596717	0.722878
	H14	H	0.835027	0.599156	0.290796
	H15	H	0.157693	0.393982	0.282350
	H16	H	0.395851	0.716006	0.840836
	H17	H	0.599258	0.716730	0.165457
	H18	H	0.600050	0.279927	0.842293
	H19	H	0.392594	0.278313	0.166027
	H20	H	0.718469	0.835667	0.400650
	H21	H	0.720277	0.157227	0.606852
	H22	H	0.280490	0.836809	0.608416
	H23	H	0.280374	0.157148	0.398612
	H24	H	0.892600	0.336488	0.222943
	H25	H	0.096124	0.659894	0.221221
	H26	H	0.097734	0.334751	0.787902
	H27	H	0.894002	0.657845	0.786013
	H28	H	0.215648	0.896216	0.341612
	H29	H	0.217389	0.099467	0.666209
	H30	H	0.784273	0.097738	0.341224
	H31	H	0.781496	0.895675	0.666809
	H32	H	0.335896	0.214649	0.901436
	H33	H	0.659372	0.215125	0.104801
	H34	H	0.335578	0.781374	0.106476
	H35	H	0.659495	0.778515	0.899936
	H36	H	0.337109	0.896310	0.222539
	H37	H	0.661540	0.096882	0.218116
	H38	H	0.336629	0.098936	0.785862
	H39	H	0.661597	0.897304	0.787680
	H40	H	0.897729	0.214549	0.342060
	H41	H	0.104587	0.217668	0.664859
	H42	H	0.101796	0.778050	0.342954
	H43	H	0.897241	0.780534	0.667873
	H44	H	0.215895	0.336265	0.901195
	H45	H	0.214968	0.658834	0.107062
	H46	H	0.777901	0.337079	0.106625
	H47	H	0.780583	0.659745	0.903610
	H48	H	0.402979	0.116311	0.602355
	H49	H	0.596392	0.879873	0.596790
	H50	H	0.596897	0.114436	0.408453
	H51	H	0.410885	0.883538	0.418721
	H52	H	0.589471	0.409842	0.120490
	H53	H	0.582695	0.592826	0.888403
	H54	H	0.401979	0.586453	0.119447
	H55	H	0.398240	0.404992	0.885229
	H56	H	0.116719	0.589067	0.406062
	H57	H	0.879750	0.583765	0.605164
	H58	H	0.115380	0.400165	0.593884
	H59	H	0.882020	0.400309	0.418186
	H60	H	0.110842	0.410847	0.590015
	H61	H	0.879998	0.598099	0.592939
	H62	H	0.112933	0.592258	0.420356
	H63	H	0.885045	0.409303	0.418429
	H64	H	0.409497	0.587204	0.116715
	H65	H	0.594425	0.590331	0.885541
	H66	H	0.581835	0.409025	0.118099
	H67	H	0.408072	0.414583	0.891563
	H68	H	0.586525	0.111611	0.410287
	H69	H	0.586747	0.882367	0.599804
	H70	H	0.419274	0.109321	0.595506
	H71	H	0.403375	0.880089	0.412942
	H72	H	0.894781	0.616343	0.094565
	H73	H	0.080918	0.384162	0.096223
	H74	H	0.088251	0.610294	0.918996
	H75	H	0.897032	0.381447	0.920756
	H76	H	0.083807	0.901836	0.619727
	H77	H	0.090777	0.086233	0.389480
	H78	H	0.911976	0.084600	0.617641
	H79	H	0.899414	0.904875	0.386076
	H80	H	0.618307	0.090933	0.902497
	H81	H	0.379433	0.093909	0.096393
	H82	H	0.616680	0.908894	0.103898
	H83	H	0.380068	0.901284	0.910020
	H84	H	0.615794	0.895381	0.090364
	H85	H	0.385312	0.085815	0.089948
	H86	H	0.614394	0.097771	0.919972
	H87	H	0.385944	0.906292	0.918740
	H88	H	0.911693	0.088101	0.620026
	H89	H	0.088722	0.087104	0.388979
	H90	H	0.096015	0.901712	0.624671
	H91	H	0.913873	0.915740	0.392923
	H92	H	0.091076	0.613786	0.910305
	H93	H	0.088368	0.384532	0.089247
	H94	H	0.906900	0.615894	0.107025
	H95	H	0.904141	0.378922	0.905415
	H96	H	0.404377	0.111575	0.584492
	H97	H	0.589190	0.884560	0.590111
	H98	H	0.593072	0.110808	0.418677
	H99	H	0.411950	0.881167	0.409950
	H100	H	0.585571	0.402430	0.120423
	H101	H	0.587137	0.581592	0.890948
	H102	H	0.405148	0.593463	0.119837
	H103	H	0.412034	0.400326	0.888822
	H104	H	0.110324	0.578832	0.414369
	H105	H	0.886244	0.581641	0.587861
	H106	H	0.114529	0.410011	0.602509
	H107	H	0.881768	0.406260	0.410277
	H108	H	0.910630	0.609502	0.091539
	H109	H	0.090568	0.381032	0.097965
	H110	H	0.082333	0.610789	0.911849
	H111	H	0.913803	0.385242	0.918238
	H112	H	0.091179	0.912357	0.618524
	H113	H	0.090127	0.087789	0.388202
	H114	H	0.908232	0.085549	0.619287
	H115	H	0.917588	0.897285	0.388446
	H116	H	0.609525	0.079581	0.916144
	H117	H	0.382120	0.083322	0.100827
	H118	H	0.609194	0.913396	0.086032
	H119	H	0.383796	0.912317	0.908904
	C120	C	0.377634	0.006280	0.625644
	C121	C	0.621490	0.988871	0.625693
	C122	C	0.622533	0.005471	0.381668
	C123	C	0.378730	0.988106	0.382931
	C124	C	0.617737	0.376562	0.012870
	C125	C	0.618626	0.619308	0.995317
	C126	C	0.375260	0.619729	0.011776
	C127	C	0.374918	0.375630	0.995661
	C128	C	0.006498	0.617946	0.383885
	C129	C	0.988845	0.617957	0.626793
	C130	C	0.007022	0.375087	0.626063
	C131	C	0.989039	0.374800	0.382514
	C132	C	0.873637	0.507050	0.127553
	C133	C	0.117475	0.489559	0.125853
	C134	C	0.117859	0.505279	0.883128
	C135	C	0.874966	0.488605	0.883395
	C136	C	0.121103	0.874914	0.513643
	C137	C	0.121371	0.118533	0.495503
	C138	C	0.879394	0.117178	0.512405
	C139	C	0.878576	0.875374	0.496284
	C140	C	0.507025	0.119793	0.881901
	C141	C	0.489316	0.118058	0.125528
	C142	C	0.507088	0.875878	0.125381
	C143	C	0.490228	0.876147	0.881691
	C144	C	0.377752	0.884725	0.683842
	C145	C	0.621412	0.110782	0.682705
	C146	C	0.622533	0.884545	0.323600
	C147	C	0.379139	0.109935	0.325753
	C148	C	0.676763	0.376432	0.891374
	C149	C	0.675670	0.619957	0.117349
	C150	C	0.317718	0.619783	0.889631
	C151	C	0.318036	0.376407	0.118169
	C152	C	0.885397	0.677026	0.384083
	C153	C	0.110510	0.675704	0.628489
	C154	C	0.885830	0.315830	0.626591
	C155	C	0.110785	0.317426	0.379556
	C156	C	0.884618	0.373837	0.683430
	C157	C	0.110121	0.617016	0.684801
	C158	C	0.884180	0.618482	0.328006
	C159	C	0.109844	0.374886	0.322071
	C160	C	0.375805	0.677379	0.889473
	C161	C	0.618342	0.677325	0.117195
	C162	C	0.619010	0.318831	0.890982
	C163	C	0.374172	0.317575	0.117653
	C164	C	0.679923	0.884091	0.381410
	C165	C	0.680279	0.109787	0.625923
	C166	C	0.319473	0.885071	0.627029
	C167	C	0.320315	0.109262	0.381149
	C168	C	0.873611	0.385174	0.184485
	C169	C	0.116619	0.611169	0.183076
	C170	C	0.117049	0.383382	0.826383
	C171	C	0.874763	0.609851	0.824950
	C172	C	0.177800	0.875857	0.390853
	C173	C	0.178797	0.118636	0.617531
	C174	C	0.822313	0.117224	0.390074
	C175	C	0.820097	0.875781	0.618255
	C176	C	0.384698	0.176404	0.881734
	C177	C	0.611338	0.175776	0.124371
	C178	C	0.384753	0.819461	0.125726
	C179	C	0.611824	0.818367	0.881374
	C180	C	0.385527	0.876723	0.183514
	C181	C	0.612432	0.117189	0.180636
	C182	C	0.385113	0.119011	0.824178
	C183	C	0.612671	0.877208	0.825275
	C184	C	0.879010	0.175197	0.390423
	C185	C	0.122875	0.177675	0.616788
	C186	C	0.121306	0.816994	0.391598
	C187	C	0.877891	0.818393	0.618818
	C188	C	0.176093	0.384072	0.882577
	C189	C	0.175531	0.610786	0.126136
	C190	C	0.816451	0.385104	0.126604
	C191	C	0.818432	0.610748	0.883552
	C192	C	0.401823	0.090423	0.601212
	C193	C	0.597608	0.904277	0.602206
	C194	C	0.599186	0.090329	0.405508
	C195	C	0.401895	0.903657	0.406792
	C196	C	0.592773	0.400351	0.097553
	C197	C	0.594972	0.595246	0.910456
	C198	C	0.398689	0.595991	0.096696
	C199	C	0.399083	0.399630	0.910473
	C200	C	0.091386	0.593576	0.407000
	C201	C	0.904051	0.594552	0.602361
	C202	C	0.091567	0.399616	0.602449
	C203	C	0.904707	0.398300	0.408243
	C204	C	0.897237	0.591871	0.104423
	C205	C	0.093656	0.405073	0.101572
	C206	C	0.093998	0.589781	0.906929
	C207	C	0.898138	0.404030	0.907662
	C208	C	0.097364	0.898627	0.598979
	C209	C	0.097244	0.094139	0.410961
	C210	C	0.903650	0.093079	0.597011
	C211	C	0.903134	0.899160	0.411242
	C212	C	0.591909	0.096374	0.905882
	C213	C	0.404565	0.094495	0.102499
	C214	C	0.592033	0.899115	0.100730
	C215	C	0.405316	0.899829	0.905516
	Zn216	Zn	0.499206	-0.001884	0.753916
	Zn217	Zn	0.499231	-0.002753	0.254224
	Zn218	Zn	0.746445	0.498276	0.004641
	Zn219	Zn	0.247065	0.497297	0.003954
	Zn220	Zn	-0.001017	0.746538	0.505378
	Zn221	Zn	-0.000171	0.246733	0.504114
	Zn222	Zn	-0.003691	0.496368	0.754708
	Zn223	Zn	-0.003718	0.497634	0.255499
	Zn224	Zn	0.497660	0.747829	0.003085
	Zn225	Zn	0.496753	0.247324	0.004773
	Zn226	Zn	0.750428	-0.003318	0.503523
	Zn227	Zn	0.249572	-0.003101	0.503691
	N228	N	0.413250	0.961099	0.683098
	N229	N	0.585580	0.034538	0.682618
	N230	N	0.587452	0.961109	0.323674
	N231	N	0.415072	0.033692	0.326741
	N232	N	0.676186	0.411620	0.968313
	N233	N	0.675738	0.584544	0.040717
	N234	N	0.317154	0.584749	0.966614
	N235	N	0.318501	0.411771	0.041331
	N236	N	0.962447	0.676936	0.418115
	N237	N	0.034057	0.676384	0.593060
	N238	N	0.962971	0.316222	0.591664
	N239	N	0.034779	0.317170	0.416578
	N240	N	0.960906	0.409635	0.683645
	N241	N	0.033289	0.582140	0.684040
	N242	N	0.960419	0.582375	0.327913
	N243	N	0.033135	0.409865	0.323880
	N244	N	0.410611	0.677730	0.966429
	N245	N	0.583709	0.677186	0.040059
	N246	N	0.582985	0.318726	0.967474
	N247	N	0.408913	0.316952	0.040310
	N248	N	0.679966	0.960504	0.416771
	N249	N	0.680328	0.033119	0.591234
	N250	N	0.319273	0.961545	0.591565
	N251	N	0.319924	0.032646	0.416252
	N252	N	0.908182	0.462024	0.185449
	N253	N	0.081303	0.534808	0.182878
	N254	N	0.081531	0.459755	0.826753
	N255	N	0.909258	0.532996	0.824800
	N256	N	0.177972	0.910849	0.467772
	N257	N	0.178172	0.082840	0.540999
	N258	N	0.822172	0.082078	0.467035
	N259	N	0.820529	0.910342	0.540933
	N260	N	0.461502	0.177137	0.916811
	N261	N	0.533838	0.176744	0.090858
	N262	N	0.461578	0.818807	0.090247
	N263	N	0.534696	0.817698	0.915918
	N264	N	0.462667	0.910968	0.183484
	N265	N	0.535725	0.082307	0.181729
	N266	N	0.462287	0.084585	0.824065
	N267	N	0.536073	0.912490	0.825453
	N268	N	0.913741	0.175578	0.467497
	N269	N	0.087898	0.177855	0.539952
	N270	N	0.086923	0.816221	0.469247
	N271	N	0.913556	0.818152	0.541989
	N272	N	0.176743	0.460782	0.917234
	N273	N	0.176198	0.534155	0.091212
	N274	N	0.815984	0.461863	0.092056
	N275	N	0.818537	0.534444	0.919283
	O276	O	0.561472	0.474560	0.671045
	H277	H	0.571395	0.479640	0.677046
	H278	H	0.553546	0.485254	0.665623
	O279	O	0.457418	0.366028	0.328918
	H280	H	0.455024	0.368605	0.325264
	H281	H	0.466386	0.366955	0.324425
	O282	O	1.045995	-0.120434	0.999752
	H283	H	1.059052	-0.124105	1.009579
	H284	H	1.047463	-0.125255	0.994660
	O285	O	0.496565	0.551012	0.437734
	H286	H	0.493679	0.544213	0.431898
	H287	H	0.512270	0.544158	0.428696
	O288	O	0.843369	1.132673	0.953103
	H289	H	0.849623	1.133883	0.955427
	H290	H	0.836420	1.133527	0.944881
	O291	O	0.009463	0.890073	0.053733
	H292	H	0.029771	0.888249	0.049569
	H293	H	0.006437	0.899948	0.050467
	O294	O	0.474826	0.366876	0.397040
	H295	H	0.461318	0.359315	0.402817
	H296	H	0.458179	0.372953	0.393675
	O297	O	0.303881	0.301363	0.520456
	H298	H	0.310062	0.306149	0.552893
	H299	H	0.284365	0.281139	0.527220
	O300	O	0.315442	0.336493	0.664525
	H301	H	0.330122	0.339984	0.671911
	H302	H	0.333120	0.350907	0.673248
	O303	O	0.349657	0.585738	0.329961
	H304	H	0.349904	0.578896	0.309757
	H305	H	0.340894	0.578617	0.345277
	O306	O	0.576376	0.347783	0.551366
	H307	H	0.589099	0.343028	0.554788
	H308	H	0.571896	0.344306	0.529514
	O309	O	0.352315	0.700789	0.406590
	H310	H	0.343182	0.713782	0.412125
	H311	H	0.333779	0.694696	0.394518
	O312	O	0.060884	-0.163744	-0.037669
	H313	H	0.068385	-0.165740	-0.051436
	H314	H	0.069154	-0.164147	-0.048559
	O315	O	0.577449	0.693881	0.538586
	H316	H	0.586418	0.695372	0.521131
	H317	H	0.581572	0.692258	0.539102
	O318	O	-0.338137	1.312907	0.665042
	H319	H	-0.340323	1.331417	0.665672
	H320	H	-0.329801	1.312640	0.649660
	O321	O	0.701271	0.475490	0.395168
	H322	H	0.689678	0.459968	0.403724
	H323	H	0.719130	0.484749	0.379007
	O324	O	0.099188	0.957741	0.089956
	H325	H	0.090143	0.953918	0.080607
	H326	H	0.108491	0.954728	0.091686
	O327	O	0.520316	0.550037	0.338097
	H328	H	0.529132	0.541033	0.334005
	H329	H	0.516474	0.550758	0.351819
	O330	O	0.372332	-0.358802	1.610486
	H331	H	0.351821	-0.349740	1.590591
	H332	H	0.397250	-0.349864	1.613112
	O333	O	0.137471	0.070523	0.990215
	H334	H	0.135202	0.073448	0.987060
	H335	H	0.130114	0.062369	1.003464
	O336	O	0.618443	0.660510	0.510637
	H337	H	0.607961	0.651824	0.525511
	H338	H	0.617912	0.669053	0.497458
	O339	O	0.470908	-0.691587	0.692348
	H340	H	0.489348	-0.697275	0.690357
	H341	H	0.489353	-0.698361	0.698898
	O342	O	-0.038254	-0.109279	0.042102
	H343	H	-0.042382	-0.100188	0.055586
	H344	H	-0.047354	-0.118313	0.031897
	O345	O	0.973362	0.014773	0.871215
	H346	H	0.978574	0.008849	0.862045
	H347	H	0.968239	0.030762	0.867401
	O348	O	1.031267	0.905284	-0.078260
	H349	H	1.028149	0.898062	-0.092727
	H350	H	1.038264	0.923446	-0.081573
	O351	O	0.441792	0.562031	0.509079
	H352	H	0.442637	0.555326	0.512989
	H353	H	0.433510	0.555861	0.510244
	O354	O	1.092291	0.160884	1.165682
	H355	H	1.099404	0.154177	1.163716
	H356	H	1.110290	0.162623	1.167639
	O357	O	0.624463	0.630111	0.650541
	H358	H	0.621380	0.631004	0.639084
	H359	H	0.628462	0.639345	0.662414
	O360	O	0.591939	0.643992	0.680532
	H361	H	0.582662	0.643792	0.687435
	H362	H	0.593353	0.653112	0.661281
	O363	O	0.107438	0.990889	0.955492
	H364	H	0.112165	0.993761	0.961070
	H365	H	0.095648	0.991437	0.952023
	O366	O	0.437746	0.609205	0.314083
	H367	H	0.444945	0.607912	0.317051
	H368	H	0.427500	0.613334	0.310895
	O369	O	0.078897	0.966707	-0.072345
	H370	H	0.071459	0.970776	-0.078873
	H371	H	0.076819	0.968331	-0.071785
	O372	O	1.387620	0.614617	0.558191
	H373	H	1.395081	0.621157	0.550732
	H374	H	1.379519	0.617348	0.549964
	O375	O	0.960014	0.052648	0.127344
	H376	H	0.951414	0.048394	0.117115
	H377	H	0.961532	0.059376	0.130757
	O378	O	0.925002	1.020264	-0.023939
	H379	H	0.913037	1.021220	-0.026773
	H380	H	0.916828	1.032033	-0.014322
	O381	O	1.040450	0.120887	0.072120
	H382	H	1.048028	0.114432	0.076744
	H383	H	1.036051	0.117378	0.047186
	O384	O	0.843787	1.072895	-0.048701
	H385	H	0.849745	1.063118	-0.038188
	H386	H	0.839256	1.078590	-0.050253
	O387	O	-0.091028	-0.016837	0.143576
	H388	H	-0.094710	-0.019243	0.139326
	H389	H	-0.084795	-0.004668	0.144858
	O390	O	-0.033062	0.842621	-0.092626
	H391	H	-0.031539	0.854208	-0.095033
	H392	H	-0.034559	0.846528	-0.086684
	O393	O	0.991470	1.024011	1.020363
	H394	H	0.993373	1.020171	1.017090
	H395	H	0.991104	1.015705	1.018054
	O396	O	0.408797	0.515919	0.629834
	H397	H	0.433364	0.521853	0.630025
	H398	H	0.405043	0.519260	0.631190
	O399	O	-0.095620	1.164200	0.930700
	H400	H	-0.108577	1.161423	0.940066
	H401	H	-0.092081	1.177954	0.911109
	O402	O	0.582794	0.347090	0.347252
	H403	H	0.582740	0.357401	0.337504
	H404	H	0.559687	0.354921	0.344679
	O405	O	0.990208	0.889484	-0.059547
	H406	H	0.973360	0.884368	-0.069092
	H407	H	0.985720	0.884852	-0.059595
	O408	O	0.722663	1.290117	0.329128
	H409	H	0.714439	1.298104	0.305883
	H410	H	0.734080	1.261621	0.318928
	O411	O	0.597413	-0.569128	0.445051
	H412	H	0.588727	-0.580571	0.448222
	H413	H	0.608910	-0.575921	0.434014
	O414	O	0.469195	0.335596	0.472794
	H415	H	0.463506	0.333367	0.482120
	H416	H	0.453774	0.345231	0.482468
	O417	O	0.390012	0.448552	0.495714
	H418	H	0.394520	0.430948	0.509761
	H419	H	0.399391	0.450425	0.502656
