data_Molecule from HDF5

_cell_length_a		16.266570
_cell_length_b		16.302779
_cell_length_c		16.148614
_cell_angle_alpha	90.023500
_cell_angle_beta	89.978442
_cell_angle_gamma	90.100020
_symmetry_space_group_name_H-M	'P 1'
_symmetry_Int_Tables_number		1

loop_
	_symmetry_equiv_pos_as_xyz
	x,y,z

loop_
	_atom_site_label
	_atom_site_type_symbol
	_atom_site_fract_x
	_atom_site_fract_y
	_atom_site_fract_z
	H0	H	0.400229	0.837769	0.707622
	H1	H	0.595927	0.165613	0.708510
	H2	H	0.594414	0.837338	0.279885
	H3	H	0.400917	0.165927	0.280839
	H4	H	0.710465	0.402644	0.830311
	H5	H	0.708598	0.598814	0.160270
	H6	H	0.283902	0.599175	0.829446
	H7	H	0.283565	0.402906	0.159442
	H8	H	0.835031	0.716954	0.396218
	H9	H	0.161033	0.716658	0.594833
	H10	H	0.834141	0.284762	0.596417
	H11	H	0.160587	0.286223	0.395553
	H12	H	0.831528	0.405525	0.706432
	H13	H	0.161656	0.598382	0.707653
	H14	H	0.832359	0.598356	0.283611
	H15	H	0.161735	0.405208	0.281808
	H16	H	0.398212	0.715482	0.829626
	H17	H	0.595266	0.715600	0.158729
	H18	H	0.594948	0.288685	0.829775
	H19	H	0.396857	0.286387	0.158603
	H20	H	0.712302	0.838018	0.395267
	H21	H	0.712457	0.165104	0.593205
	H22	H	0.282508	0.838314	0.592708
	H23	H	0.282400	0.165018	0.393745
	H24	H	0.899712	0.338033	0.208753
	H25	H	0.094071	0.666498	0.207806
	H26	H	0.092891	0.337596	0.781169
	H27	H	0.900107	0.665957	0.782545
	H28	H	0.210214	0.903588	0.329524
	H29	H	0.212722	0.100103	0.658458
	H30	H	0.785069	0.099839	0.328840
	H31	H	0.783023	0.903884	0.658610
	H32	H	0.333386	0.216647	0.894449
	H33	H	0.660373	0.217502	0.093351
	H34	H	0.334000	0.786592	0.093640
	H35	H	0.660537	0.786781	0.894301
	H36	H	0.332577	0.905649	0.205669
	H37	H	0.661569	0.099461	0.206279
	H38	H	0.332998	0.099139	0.780412
	H39	H	0.661071	0.905045	0.780562
	H40	H	0.899702	0.215857	0.330267
	H41	H	0.096576	0.215430	0.660191
	H42	H	0.096235	0.788058	0.330472
	H43	H	0.899516	0.789327	0.659883
	H44	H	0.210301	0.337632	0.897008
	H45	H	0.213045	0.665220	0.093844
	H46	H	0.782547	0.338293	0.093734
	H47	H	0.782211	0.664684	0.896382
	H48	H	0.406543	0.114516	0.577126
	H49	H	0.583633	0.886935	0.587293
	H50	H	0.602122	0.120921	0.400729
	H51	H	0.399152	0.885325	0.405150
	H52	H	0.591292	0.406303	0.114199
	H53	H	0.588567	0.592165	0.876878
	H54	H	0.408290	0.596207	0.111929
	H55	H	0.397576	0.410918	0.875268
	H56	H	0.115317	0.591770	0.395843
	H57	H	0.875896	0.598392	0.601156
	H58	H	0.116507	0.405172	0.594714
	H59	H	0.878413	0.407605	0.395874
	H60	H	0.113086	0.404866	0.581314
	H61	H	0.879315	0.607459	0.579548
	H62	H	0.117097	0.602873	0.401324
	H63	H	0.880239	0.402482	0.408114
	H64	H	0.401778	0.597437	0.113271
	H65	H	0.588559	0.596360	0.876345
	H66	H	0.590320	0.411721	0.111987
	H67	H	0.408970	0.413067	0.879191
	H68	H	0.586290	0.119226	0.391327
	H69	H	0.594964	0.885870	0.580515
	H70	H	0.395743	0.121549	0.589018
	H71	H	0.401717	0.882695	0.394148
	H72	H	0.908806	0.616337	0.086852
	H73	H	0.100730	0.384268	0.080763
	H74	H	0.093114	0.619504	0.899941
	H75	H	0.900204	0.381530	0.894270
	H76	H	0.098260	0.904149	0.615972
	H77	H	0.104348	0.088377	0.374520
	H78	H	0.898612	0.082246	0.609936
	H79	H	0.904547	0.908286	0.376163
	H80	H	0.620267	0.095295	0.882532
	H81	H	0.377263	0.104253	0.086744
	H82	H	0.616754	0.906478	0.093062
	H83	H	0.384214	0.910774	0.910348
	H84	H	0.614500	0.902119	0.082021
	H85	H	0.383380	0.092232	0.079130
	H86	H	0.615893	0.113074	0.911504
	H87	H	0.379065	0.913749	0.892587
	H88	H	0.917458	0.094796	0.609103
	H89	H	0.078332	0.086179	0.383385
	H90	H	0.092142	0.918061	0.610708
	H91	H	0.905116	0.908262	0.376624
	H92	H	0.089505	0.617807	0.900844
	H93	H	0.091341	0.381788	0.100729
	H94	H	0.897604	0.619500	0.084313
	H95	H	0.910045	0.387274	0.902298
	H96	H	0.412405	0.117626	0.592762
	H97	H	0.594176	0.882086	0.592931
	H98	H	0.587626	0.114666	0.410110
	H99	H	0.409818	0.886931	0.400860
	H100	H	0.585756	0.408092	0.112393
	H101	H	0.592479	0.594317	0.875567
	H102	H	0.403225	0.591064	0.111520
	H103	H	0.405528	0.401626	0.874969
	H104	H	0.112438	0.593450	0.408141
	H105	H	0.884807	0.585053	0.584043
	H106	H	0.111649	0.416551	0.588275
	H107	H	0.883611	0.414868	0.405579
	H108	H	0.901240	0.621043	0.095232
	H109	H	0.079338	0.389928	0.084114
	H110	H	0.092192	0.618481	0.903674
	H111	H	0.897234	0.385244	0.907173
	H112	H	0.083080	0.904519	0.611406
	H113	H	0.087302	0.110798	0.372872
	H114	H	0.897767	0.103587	0.617534
	H115	H	0.904292	0.907508	0.376559
	H116	H	0.606532	0.080593	0.910189
	H117	H	0.379106	0.091099	0.093678
	H118	H	0.612385	0.913422	0.084049
	H119	H	0.376637	0.897031	0.900384
	C120	C	0.376100	0.009924	0.615000
	C121	C	0.619268	0.993276	0.615940
	C122	C	0.619835	0.009849	0.371969
	C123	C	0.375365	0.993324	0.371789
	C124	C	0.617688	0.380686	0.003583
	C125	C	0.617946	0.622731	0.985694
	C126	C	0.375893	0.623087	0.003073
	C127	C	0.375692	0.380148	0.985692
	C128	C	0.006419	0.624083	0.373648
	C129	C	0.988541	0.624759	0.617080
	C130	C	0.005229	0.380543	0.616426
	C131	C	0.988918	0.380252	0.374169
	C132	C	0.874328	0.510657	0.117398
	C133	C	0.118598	0.493711	0.116404
	C134	C	0.119013	0.510152	0.872930
	C135	C	0.874931	0.493036	0.873406
	C136	C	0.119106	0.880873	0.503514
	C137	C	0.119367	0.123698	0.485852
	C138	C	0.876471	0.122339	0.503142
	C139	C	0.876442	0.880113	0.485584
	C140	C	0.505733	0.124259	0.872411
	C141	C	0.488395	0.123967	0.115381
	C142	C	0.505930	0.879928	0.115156
	C143	C	0.488406	0.879787	0.872666
	C144	C	0.378769	0.886706	0.670320
	C145	C	0.616827	0.116330	0.671195
	C146	C	0.615952	0.886603	0.317112
	C147	C	0.379416	0.116828	0.317920
	C148	C	0.672731	0.382664	0.879475
	C149	C	0.671787	0.619561	0.110477
	C150	C	0.321417	0.619820	0.878679
	C151	C	0.320819	0.382441	0.110002
	C152	C	0.883404	0.678871	0.376130
	C153	C	0.112085	0.679073	0.615083
	C154	C	0.882155	0.324501	0.614930
	C155	C	0.112081	0.324752	0.375567
	C156	C	0.881050	0.384355	0.669864
	C157	C	0.112279	0.620135	0.671064
	C158	C	0.882274	0.620059	0.320012
	C159	C	0.112511	0.383641	0.319018
	C160	C	0.378088	0.677807	0.878891
	C161	C	0.615286	0.677390	0.109820
	C162	C	0.615286	0.325917	0.879196
	C163	C	0.377198	0.324790	0.109714
	C164	C	0.674153	0.886612	0.374775
	C165	C	0.674459	0.116283	0.613547
	C166	C	0.320402	0.887164	0.613107
	C167	C	0.320231	0.116224	0.373808
	C168	C	0.878242	0.386991	0.171766
	C169	C	0.115422	0.617375	0.170670
	C170	C	0.114316	0.386416	0.818888
	C171	C	0.878829	0.616836	0.819580
	C172	C	0.173201	0.883176	0.379010
	C173	C	0.174519	0.120741	0.609783
	C174	C	0.822383	0.119751	0.378370
	C175	C	0.821233	0.883178	0.609696
	C176	C	0.382223	0.178540	0.874402
	C177	C	0.611706	0.179373	0.113289
	C178	C	0.382620	0.825016	0.113505
	C179	C	0.611749	0.825001	0.874258
	C180	C	0.382015	0.884230	0.168990
	C181	C	0.612287	0.120576	0.169295
	C182	C	0.382056	0.120177	0.817748
	C183	C	0.612144	0.883779	0.818139
	C184	C	0.879394	0.177260	0.378976
	C185	C	0.116808	0.177847	0.610552
	C186	C	0.116675	0.825937	0.379366
	C187	C	0.878972	0.826241	0.610220
	C188	C	0.172901	0.386503	0.876101
	C189	C	0.174401	0.616756	0.113973
	C190	C	0.819845	0.387264	0.114777
	C191	C	0.820292	0.616312	0.876224
	C192	C	0.398358	0.095669	0.592864
	C193	C	0.597289	0.907227	0.593526
	C194	C	0.598404	0.096105	0.394071
	C195	C	0.397119	0.907158	0.393716
	C196	C	0.595580	0.402263	0.090510
	C197	C	0.596219	0.600849	0.898741
	C198	C	0.398009	0.601362	0.089946
	C199	C	0.397642	0.401974	0.898962
	C200	C	0.092682	0.602411	0.395542
	C201	C	0.902132	0.603528	0.594590
	C202	C	0.091472	0.402220	0.594461
	C203	C	0.903170	0.401867	0.396536
	C204	C	0.895990	0.596666	0.095253
	C205	C	0.096794	0.407625	0.094907
	C206	C	0.097934	0.596296	0.894952
	C207	C	0.896086	0.406871	0.894939
	C208	C	0.097339	0.902591	0.590248
	C209	C	0.096708	0.101784	0.399236
	C210	C	0.898403	0.100168	0.589828
	C211	C	0.898346	0.901416	0.398814
	C212	C	0.592122	0.102890	0.894743
	C213	C	0.402179	0.102249	0.093111
	C214	C	0.592251	0.901210	0.092971
	C215	C	0.402104	0.900919	0.894667
	Zn216	Zn	0.497286	0.001837	0.744730
	Zn217	Zn	0.497413	0.001971	0.243427
	Zn218	Zn	0.745854	0.501826	-0.005257
	Zn219	Zn	0.248252	0.501492	-0.005154
	Zn220	Zn	-0.001294	0.752688	0.495219
	Zn221	Zn	-0.002821	0.251235	0.495622
	Zn222	Zn	-0.003492	0.502005	0.744568
	Zn223	Zn	-0.003209	0.502152	0.245344
	Zn224	Zn	0.497062	0.751145	-0.005920
	Zn225	Zn	0.496627	0.252602	-0.005580
	Zn226	Zn	0.748247	0.001623	0.494041
	Zn227	Zn	0.246761	0.001812	0.493529
	N228	N	0.412757	0.964035	0.671650
	N229	N	0.583022	0.038896	0.672605
	N230	N	0.582965	0.964310	0.315344
	N231	N	0.412646	0.039316	0.316026
	N232	N	0.674177	0.416254	0.957694
	N233	N	0.673450	0.586181	0.032207
	N234	N	0.319986	0.586676	0.956809
	N235	N	0.319940	0.416377	0.031936
	N236	N	0.961588	0.681434	0.408675
	N237	N	0.034074	0.681907	0.582126
	N238	N	0.960401	0.321804	0.582586
	N239	N	0.034365	0.322443	0.409185
	N240	N	0.958575	0.418545	0.670731
	N241	N	0.034479	0.586941	0.672342
	N242	N	0.959772	0.586542	0.318390
	N243	N	0.035079	0.417433	0.318090
	N244	N	0.411304	0.679802	0.957302
	N245	N	0.582435	0.679314	0.031325
	N246	N	0.581821	0.324571	0.957442
	N247	N	0.410640	0.323276	0.031477
	N248	N	0.676678	0.964477	0.407821
	N249	N	0.676161	0.038726	0.579930
	N250	N	0.318839	0.964712	0.579329
	N251	N	0.317710	0.038326	0.406657
	N252	N	0.911639	0.464586	0.173459
	N253	N	0.081499	0.540104	0.172311
	N254	N	0.081614	0.464196	0.816764
	N255	N	0.911977	0.539246	0.817583
	N256	N	0.174732	0.916707	0.457114
	N257	N	0.176210	0.087962	0.531366
	N258	N	0.820588	0.086159	0.456582
	N259	N	0.819407	0.915868	0.531227
	N260	N	0.460087	0.181163	0.907584
	N261	N	0.533735	0.181481	0.080296
	N262	N	0.460527	0.822317	0.080629
	N263	N	0.533708	0.822160	0.907381
	N264	N	0.459695	0.917929	0.170034
	N265	N	0.534690	0.087067	0.170848
	N266	N	0.459860	0.086987	0.816517
	N267	N	0.534592	0.917210	0.817159
	N268	N	0.912011	0.179230	0.457528
	N269	N	0.082780	0.179328	0.532541
	N270	N	0.083610	0.824312	0.457672
	N271	N	0.912657	0.824345	0.532097
	N272	N	0.175762	0.464375	0.909163
	N273	N	0.176535	0.538887	0.080936
	N274	N	0.817185	0.465038	0.081807
	N275	N	0.817753	0.538406	0.908969
	O276	O	0.473662	-0.572777	1.506315
	H277	H	0.472356	-0.578283	1.501358
	H278	H	0.466848	-0.567575	1.502619
	O279	O	0.477284	0.414600	0.488406
	H280	H	0.474379	0.406467	0.487135
	H281	H	0.484138	0.411046	0.489838
	O282	O	1.493789	1.415212	0.512000
	H283	H	1.497821	1.419567	0.517131
	H284	H	1.489773	1.412088	0.513135
	O285	O	0.488666	0.417628	0.472088
	H286	H	0.483761	0.413833	0.475131
	H287	H	0.492262	0.419527	0.467480
