data_Molecule from HDF5

_cell_length_a		16.261171
_cell_length_b		16.549989
_cell_length_c		16.437230
_cell_angle_alpha	89.984354
_cell_angle_beta	90.151062
_cell_angle_gamma	89.753384
_symmetry_space_group_name_H-M	'P 1'
_symmetry_Int_Tables_number		1

loop_
	_symmetry_equiv_pos_as_xyz
	x,y,z

loop_
	_atom_site_label
	_atom_site_type_symbol
	_atom_site_fract_x
	_atom_site_fract_y
	_atom_site_fract_z
	H0	H	0.397556	0.847832	0.736849
	H1	H	0.610367	0.160034	0.732551
	H2	H	0.615142	0.844777	0.287855
	H3	H	0.403599	0.161983	0.291904
	H4	H	0.723171	0.402446	0.849811
	H5	H	0.726383	0.604645	0.170448
	H6	H	0.285894	0.608517	0.851481
	H7	H	0.289170	0.402582	0.170636
	H8	H	0.847799	0.725783	0.403469
	H9	H	0.165300	0.725425	0.619458
	H10	H	0.847394	0.285639	0.613942
	H11	H	0.166573	0.280842	0.403929
	H12	H	0.846998	0.401689	0.728128
	H13	H	0.165969	0.608211	0.733089
	H14	H	0.847552	0.609534	0.289276
	H15	H	0.167887	0.399154	0.291433
	H16	H	0.397207	0.729623	0.854411
	H17	H	0.616423	0.725921	0.168746
	H18	H	0.612701	0.280893	0.852693
	H19	H	0.401239	0.283087	0.168700
	H20	H	0.728364	0.843888	0.408173
	H21	H	0.724071	0.161782	0.612727
	H22	H	0.286966	0.844745	0.615509
	H23	H	0.287221	0.161847	0.408654
	H24	H	0.902229	0.346362	0.232032
	H25	H	0.116488	0.658388	0.235382
	H26	H	0.112561	0.345543	0.788560
	H27	H	0.897272	0.659274	0.785185
	H28	H	0.227934	0.897800	0.352945
	H29	H	0.228101	0.107150	0.671062
	H30	H	0.787059	0.105557	0.352035
	H31	H	0.786657	0.898450	0.670396
	H32	H	0.347440	0.228628	0.900480
	H33	H	0.667618	0.220604	0.111802
	H34	H	0.348477	0.782252	0.116926
	H35	H	0.665913	0.779461	0.902391
	H36	H	0.346740	0.900247	0.229722
	H37	H	0.666737	0.105465	0.229660
	H38	H	0.346944	0.111242	0.786972
	H39	H	0.666001	0.896264	0.789450
	H40	H	0.900548	0.225671	0.353803
	H41	H	0.116251	0.227225	0.669088
	H42	H	0.117097	0.777115	0.356255
	H43	H	0.898113	0.778394	0.668029
	H44	H	0.230832	0.346287	0.903393
	H45	H	0.226891	0.661179	0.113118
	H46	H	0.789538	0.343921	0.110784
	H47	H	0.782985	0.660709	0.903954
	H48	H	0.421084	0.112266	0.597104
	H49	H	0.596249	0.889466	0.601953
	H50	H	0.596194	0.117173	0.414808
	H51	H	0.420385	0.891408	0.421737
	H52	H	0.592063	0.405019	0.124888
	H53	H	0.592001	0.593775	0.898200
	H54	H	0.420921	0.589949	0.121068
	H55	H	0.421312	0.415171	0.897959
	H56	H	0.122715	0.596743	0.423932
	H57	H	0.895818	0.586873	0.594046
	H58	H	0.124664	0.410283	0.601825
	H59	H	0.893877	0.421200	0.417839
	H60	H	0.121322	0.413710	0.594548
	H61	H	0.891533	0.590939	0.603184
	H62	H	0.118224	0.588266	0.429751
	H63	H	0.889112	0.408665	0.416445
	H64	H	0.422106	0.596343	0.122759
	H65	H	0.593526	0.594879	0.896970
	H66	H	0.604897	0.410709	0.127120
	H67	H	0.419024	0.412532	0.896246
	H68	H	0.591751	0.112631	0.421370
	H69	H	0.595100	0.889903	0.600536
	H70	H	0.416735	0.114884	0.598471
	H71	H	0.415167	0.889121	0.420691
	H72	H	0.916660	0.617189	0.103248
	H73	H	0.091429	0.394399	0.094306
	H74	H	0.088679	0.612500	0.921423
	H75	H	0.913270	0.390290	0.919689
	H76	H	0.093990	0.913310	0.624375
	H77	H	0.089608	0.101535	0.397580
	H78	H	0.922968	0.095234	0.623622
	H79	H	0.921073	0.912055	0.399407
	H80	H	0.619836	0.094733	0.926088
	H81	H	0.391313	0.095823	0.099295
	H82	H	0.623740	0.917122	0.105544
	H83	H	0.395795	0.917162	0.928167
	H84	H	0.623421	0.906917	0.097736
	H85	H	0.390520	0.092974	0.100540
	H86	H	0.617592	0.088658	0.924032
	H87	H	0.395065	0.919963	0.923500
	H88	H	0.915607	0.099973	0.627482
	H89	H	0.104641	0.092696	0.395567
	H90	H	0.095931	0.913969	0.624547
	H91	H	0.917559	0.913964	0.398466
	H92	H	0.094721	0.613526	0.926441
	H93	H	0.103709	0.388601	0.097729
	H94	H	0.920687	0.614828	0.098963
	H95	H	0.919258	0.390142	0.917073
	H96	H	0.420602	0.115239	0.601994
	H97	H	0.596592	0.890042	0.600490
	H98	H	0.600680	0.115147	0.422428
	H99	H	0.419339	0.889574	0.416434
	H100	H	0.594447	0.418536	0.121022
	H101	H	0.594226	0.593132	0.898190
	H102	H	0.415740	0.593064	0.125172
	H103	H	0.417533	0.415960	0.897169
	H104	H	0.121246	0.586933	0.418498
	H105	H	0.891740	0.597293	0.594163
	H106	H	0.121773	0.418863	0.601908
	H107	H	0.894805	0.412825	0.427798
	H108	H	0.914347	0.616033	0.097321
	H109	H	0.093252	0.389731	0.107241
	H110	H	0.095588	0.616442	0.918876
	H111	H	0.918919	0.392383	0.922974
	H112	H	0.093960	0.915081	0.624165
	H113	H	0.090975	0.085246	0.403852
	H114	H	0.914413	0.091036	0.625252
	H115	H	0.920539	0.916080	0.400190
	H116	H	0.620702	0.092468	0.920082
	H117	H	0.390720	0.095678	0.102258
	H118	H	0.617989	0.918393	0.093729
	H119	H	0.392781	0.915197	0.924219
	C120	C	0.386060	0.010856	0.632561
	C121	C	0.627707	0.994198	0.632716
	C122	C	0.629230	0.010767	0.388057
	C123	C	0.385373	0.994516	0.388405
	C124	C	0.627841	0.381234	0.018791
	C125	C	0.627770	0.625295	1.002318
	C126	C	0.385745	0.626127	0.019024
	C127	C	0.386042	0.382763	1.001761
	C128	C	0.015613	0.624429	0.390165
	C129	C	0.997978	0.624237	0.631591
	C130	C	0.016408	0.382909	0.630926
	C131	C	0.998317	0.381970	0.389063
	C132	C	0.885449	0.511659	0.131547
	C133	C	0.129075	0.494635	0.132184
	C134	C	0.127515	0.511101	0.888952
	C135	C	0.884282	0.495108	0.887490
	C136	C	0.128330	0.881370	0.520205
	C137	C	0.128779	0.125130	0.503321
	C138	C	0.885541	0.125797	0.520113
	C139	C	0.886471	0.881820	0.503315
	C140	C	0.514267	0.125335	0.889486
	C141	C	0.497224	0.124832	0.131370
	C142	C	0.516073	0.882473	0.131919
	C143	C	0.499173	0.882909	0.891183
	C144	C	0.381434	0.893819	0.694788
	C145	C	0.629072	0.112975	0.692250
	C146	C	0.632629	0.892199	0.328059
	C147	C	0.384563	0.114302	0.330996
	C148	C	0.684984	0.382090	0.898079
	C149	C	0.687567	0.624647	0.122212
	C150	C	0.325287	0.628043	0.899669
	C151	C	0.327138	0.382654	0.121998
	C152	C	0.895742	0.685456	0.386313
	C153	C	0.117869	0.684740	0.636569
	C154	C	0.895266	0.324764	0.632299
	C155	C	0.118755	0.321530	0.386570
	C156	C	0.895296	0.382373	0.689228
	C157	C	0.118023	0.626618	0.693163
	C158	C	0.895814	0.627550	0.329168
	C159	C	0.119394	0.380515	0.330382
	C160	C	0.381030	0.687989	0.900914
	C161	C	0.632456	0.685231	0.121491
	C162	C	0.629905	0.321773	0.899489
	C163	C	0.383249	0.323308	0.121386
	C164	C	0.689221	0.891647	0.387811
	C165	C	0.685815	0.113720	0.632855
	C166	C	0.326073	0.892558	0.634631
	C167	C	0.326326	0.114025	0.388874
	C168	C	0.883960	0.393193	0.191291
	C169	C	0.133009	0.612212	0.193752
	C170	C	0.131125	0.392919	0.828241
	C171	C	0.880331	0.612796	0.826339
	C172	C	0.188981	0.878878	0.401259
	C173	C	0.188634	0.125874	0.622989
	C174	C	0.826318	0.125415	0.400141
	C175	C	0.826153	0.879906	0.622571
	C176	C	0.394868	0.187367	0.884165
	C177	C	0.618814	0.182351	0.131931
	C178	C	0.396029	0.822458	0.134938
	C179	C	0.618159	0.820577	0.886146
	C180	C	0.395129	0.881273	0.190801
	C181	C	0.618684	0.124899	0.190048
	C182	C	0.394729	0.128709	0.827669
	C183	C	0.618311	0.878839	0.829589
	C184	C	0.882693	0.185072	0.400876
	C185	C	0.132801	0.185882	0.622058
	C186	C	0.133716	0.818805	0.402671
	C187	C	0.881636	0.820056	0.621466
	C188	C	0.189931	0.393280	0.885536
	C189	C	0.188105	0.613546	0.133184
	C190	C	0.827604	0.392133	0.131394
	C191	C	0.823374	0.613445	0.885542
	C192	C	0.412166	0.092838	0.606704
	C193	C	0.603013	0.911348	0.608146
	C194	C	0.603578	0.093409	0.412412
	C195	C	0.410580	0.911824	0.412618
	C196	C	0.603968	0.404610	0.102566
	C197	C	0.601111	0.600921	0.919395
	C198	C	0.412037	0.600572	0.101629
	C199	C	0.411815	0.407306	0.918800
	C200	C	0.099065	0.598324	0.416680
	C201	C	0.914753	0.599066	0.604731
	C202	C	0.100474	0.407258	0.606252
	C203	C	0.914336	0.407011	0.413808
	C204	C	0.910027	0.594401	0.106970
	C205	C	0.103487	0.412452	0.107069
	C206	C	0.100696	0.592827	0.914616
	C207	C	0.910040	0.412494	0.912746
	C208	C	0.102121	0.906668	0.602777
	C209	C	0.102605	0.100370	0.420566
	C210	C	0.910404	0.102248	0.603649
	C211	C	0.912392	0.906843	0.420768
	C212	C	0.597690	0.099379	0.915987
	C213	C	0.412863	0.101456	0.107539
	C214	C	0.599797	0.907135	0.106342
	C215	C	0.415991	0.909671	0.917820
	Zn216	Zn	0.506261	0.002970	0.762440
	Zn217	Zn	0.506969	0.002929	0.259076
	Zn218	Zn	0.755762	0.503123	0.009776
	Zn219	Zn	0.257505	0.504022	0.010053
	Zn220	Zn	0.006775	0.752163	0.511451
	Zn221	Zn	0.007778	0.254794	0.511148
	Zn222	Zn	0.006918	0.503108	0.758987
	Zn223	Zn	0.007768	0.503494	0.261301
	Zn224	Zn	0.507345	0.754571	0.011362
	Zn225	Zn	0.506237	0.253266	0.010162
	Zn226	Zn	0.757405	0.002425	0.511594
	Zn227	Zn	0.257119	0.002674	0.511593
	N228	N	0.417690	0.968548	0.693698
	N229	N	0.594217	0.037503	0.692635
	N230	N	0.596251	0.967443	0.327873
	N231	N	0.420150	0.038992	0.330144
	N232	N	0.683804	0.418509	0.973143
	N233	N	0.684986	0.588375	0.047118
	N234	N	0.328381	0.589898	0.973789
	N235	N	0.328768	0.418771	0.046652
	N236	N	0.971608	0.683590	0.423503
	N237	N	0.042295	0.683355	0.598922
	N238	N	0.971779	0.324663	0.597116
	N239	N	0.042315	0.321938	0.421964
	N240	N	0.971734	0.417547	0.688665
	N241	N	0.042536	0.589828	0.690231
	N242	N	0.971556	0.590583	0.331107
	N243	N	0.043501	0.417475	0.331860
	N244	N	0.417733	0.686945	0.976338
	N245	N	0.596086	0.685768	0.045857
	N246	N	0.595063	0.321221	0.975554
	N247	N	0.418841	0.323032	0.045613
	N248	N	0.687265	0.966212	0.424410
	N249	N	0.685343	0.038650	0.596948
	N250	N	0.328838	0.966397	0.596545
	N251	N	0.326387	0.038394	0.423619
	N252	N	0.918978	0.468581	0.191788
	N253	N	0.096859	0.537257	0.193084
	N254	N	0.092930	0.467046	0.830391
	N255	N	0.917521	0.538116	0.827622
	N256	N	0.185838	0.916940	0.475411
	N257	N	0.186401	0.088941	0.548074
	N258	N	0.827697	0.089415	0.475386
	N259	N	0.829223	0.917713	0.548292
	N260	N	0.470291	0.185144	0.922151
	N261	N	0.542343	0.182468	0.096254
	N262	N	0.472268	0.823058	0.099164
	N263	N	0.542865	0.823114	0.923778
	N264	N	0.470986	0.917564	0.189179
	N265	N	0.542339	0.089992	0.189977
	N266	N	0.469864	0.090541	0.831229
	N267	N	0.543295	0.917233	0.832802
	N268	N	0.918780	0.185428	0.476440
	N269	N	0.096126	0.185548	0.546504
	N270	N	0.096823	0.819959	0.477646
	N271	N	0.918389	0.820935	0.546180
	N272	N	0.188127	0.467850	0.922387
	N273	N	0.185873	0.539444	0.095788
	N274	N	0.828189	0.466922	0.095173
	N275	N	0.825666	0.539211	0.922791
	O276	O	0.691455	0.423877	0.490713
	H277	H	0.699292	0.420321	0.476410
	H278	H	0.694974	0.420533	0.491961
	O279	O	0.920175	0.099528	1.204976
	H280	H	0.905976	0.087886	1.194760
	H281	H	0.922313	0.092230	1.199461
	O282	O	0.173658	0.799860	0.935944
	H283	H	0.166210	0.821673	0.939256
	H284	H	0.158723	0.787762	0.950079
	O285	O	0.321579	0.692433	0.320695
	H286	H	0.305553	0.685677	0.312044
	H287	H	0.312815	0.676393	0.332547
	O288	O	0.933772	1.118457	-0.129382
	H289	H	0.923654	1.137111	-0.146627
	H290	H	0.938773	1.109174	-0.143148
	O291	O	0.535383	0.648379	0.292925
	H292	H	0.515282	0.644967	0.284845
	H293	H	0.516013	0.657186	0.277295
	O294	O	-0.199384	-0.210629	1.038127
	H295	H	-0.218648	-0.226094	1.026493
	H296	H	-0.207564	-0.192368	1.011466
	O297	O	0.525901	0.476856	0.719315
	H298	H	0.529873	0.476342	0.719823
	H299	H	0.535340	0.480991	0.717070
	O300	O	0.658146	0.559017	0.332264
	H301	H	0.648985	0.557533	0.313867
	H302	H	0.654051	0.561917	0.335460
	O303	O	0.419349	0.700774	0.519628
	H304	H	0.415691	0.705524	0.535040
	H305	H	0.414760	0.709973	0.503732
	O306	O	0.295300	0.658669	0.507781
	H307	H	0.294302	0.644010	0.503065
	H308	H	0.268958	0.692545	0.506600
	O309	O	1.100066	0.069085	0.048734
	H310	H	1.118226	0.080724	0.060307
	H311	H	1.098528	0.071015	0.039680
	O312	O	0.111433	0.917155	0.822719
	H313	H	0.120755	0.934431	0.816341
	H314	H	0.118381	0.898230	0.842119
	O315	O	0.436877	0.451526	0.424238
	H316	H	0.448505	0.445136	0.432295
	H317	H	0.425841	0.450579	0.413645
	O318	O	1.099789	-0.037083	0.228650
	H319	H	1.090329	-0.041302	0.201494
	H320	H	1.079375	-0.040616	0.236651
	O321	O	-0.192841	0.203803	-0.183777
	H322	H	-0.201805	0.217656	-0.146634
	H323	H	-0.161168	0.202326	-0.194479
	O324	O	0.711286	0.694828	0.545874
	H325	H	0.703349	0.699244	0.522528
	H326	H	0.714176	0.699768	0.533187
	O327	O	0.321949	0.439704	0.701076
	H328	H	0.317389	0.449494	0.713285
	H329	H	0.343802	0.454086	0.691788
	O330	O	0.085141	1.156389	0.016154
	H331	H	0.090897	1.161823	0.024613
	H332	H	0.079627	1.163768	0.015700
	O333	O	0.376405	0.624178	0.633890
	H334	H	0.401203	0.628390	0.635883
	H335	H	0.373892	0.624351	0.647139
	O336	O	0.224240	0.222578	0.035754
	H337	H	0.254706	0.254571	0.046957
	H338	H	0.205355	0.221717	0.056300
	O339	O	-0.047291	0.816210	-0.036130
	H340	H	-0.069303	0.819131	-0.029534
	H341	H	-0.046589	0.809097	-0.051627
	O342	O	-0.176184	1.073428	1.074876
	H343	H	-0.175419	1.075524	1.065617
	H344	H	-0.169416	1.077943	1.078931
	O345	O	0.705746	0.519781	-0.289625
	H346	H	0.701793	0.527419	-0.280414
	H347	H	0.713824	0.519604	-0.296224
	O348	O	0.508687	0.434292	0.348845
	H349	H	0.515488	0.421696	0.331345
	H350	H	0.512483	0.448572	0.350483
	O351	O	0.159606	1.190966	1.193072
	H352	H	0.178478	1.146729	1.205357
	H353	H	0.134342	1.199271	1.191484
	O354	O	0.158855	0.903629	-0.030344
	H355	H	0.171011	0.914522	-0.015131
	H356	H	0.171364	0.899445	-0.028038
	O357	O	-0.007880	-0.070883	1.048921
	H358	H	-0.017581	-0.056045	1.029972
	H359	H	-0.005131	-0.079819	1.050825
	O360	O	0.414679	0.460559	0.410106
	H361	H	0.423716	0.447401	0.414360
	H362	H	0.403777	0.457669	0.417839
	O363	O	0.044672	0.080606	0.834713
	H364	H	0.042589	0.053693	0.837786
	H365	H	0.059478	0.073542	0.854914
	O366	O	0.561093	0.650189	0.467952
	H367	H	0.548190	0.649970	0.442548
	H368	H	0.564209	0.658337	0.462461
	O369	O	0.337116	0.315662	0.638816
	H370	H	0.350793	0.319733	0.649935
	H371	H	0.344507	0.337853	0.634659
	O372	O	1.035045	0.173026	0.845284
	H373	H	1.028112	0.184945	0.858400
	H374	H	1.030108	0.174772	0.827773
	O375	O	0.469663	0.589597	0.517618
	H376	H	0.454732	0.587952	0.516835
	H377	H	0.453351	0.587883	0.513714
	O378	O	0.692000	0.693502	0.701194
	H379	H	0.688062	0.666664	0.706349
	H380	H	0.700367	0.698507	0.653461
	O381	O	0.529296	0.349505	0.361902
	H382	H	0.543906	0.348567	0.361887
	H383	H	0.525785	0.349548	0.347702
	O384	O	0.624299	0.372139	0.312004
	H385	H	0.617479	0.397575	0.310155
	H386	H	0.624183	0.368502	0.334258
	O387	O	0.172410	-0.002993	0.806394
	H388	H	0.190221	-0.016287	0.804039
	H389	H	0.174114	0.012770	0.801562
	O390	O	-0.203988	-0.020348	0.221314
	H391	H	-0.214406	-0.042983	0.224876
	H392	H	-0.219821	-0.039305	0.231002
	O393	O	1.196358	1.020361	0.993338
	H394	H	1.177913	1.041332	0.980495
	H395	H	1.203918	1.045517	0.987065
	O396	O	0.853462	-0.053909	-0.116250
	H397	H	0.860003	-0.035848	-0.104157
	H398	H	0.833679	-0.030106	-0.140325
	O399	O	0.791973	0.036131	0.792284
	H400	H	0.801521	0.072650	0.795436
	H401	H	0.767539	0.036121	0.761728
	O402	O	1.192419	0.802733	1.109213
	H403	H	1.186000	0.822072	1.108108
	H404	H	1.192335	0.809762	1.093335
	O405	O	0.990238	0.788145	0.226519
	H406	H	0.990112	0.762547	0.249147
	H407	H	1.007447	0.786174	0.198257
	O408	O	0.827437	-0.178581	0.196366
	H409	H	0.873433	-0.183315	0.208362
	H410	H	0.817513	-0.191783	0.143737
	O411	O	1.010739	1.180571	0.204221
	H412	H	1.009745	1.172638	0.199683
	H413	H	0.998416	1.193404	0.222156
	O414	O	0.331308	0.333926	0.519364
	H415	H	0.315652	0.303280	0.532745
	H416	H	0.343623	0.346115	0.547233
	O417	O	0.327168	0.499278	0.442810
	H418	H	0.327399	0.492837	0.438920
	H419	H	0.322789	0.506401	0.457056
	O420	O	-0.005117	0.027541	-0.032783
	H421	H	-0.006016	0.018356	-0.042906
	H422	H	-0.003182	0.022545	-0.043469
	O423	O	0.655000	0.319542	0.648563
	H424	H	0.649739	0.327874	0.643866
	H425	H	0.661719	0.322812	0.663444
	O426	O	0.502350	0.308937	0.698521
	H427	H	0.494417	0.310574	0.684635
	H428	H	0.511868	0.299896	0.699669
	O429	O	0.221563	1.063449	0.223857
	H430	H	0.239347	1.049271	0.254349
	H431	H	0.201104	1.046318	0.236721
	O432	O	0.480660	0.508652	0.451259
	H433	H	0.478468	0.508827	0.461252
	H434	H	0.474525	0.500282	0.459409
	O435	O	0.452461	0.416418	0.566612
	H436	H	0.449292	0.404384	0.550315
	H437	H	0.445707	0.429047	0.563217
	O438	O	-0.181666	0.151931	0.007717
	H439	H	-0.198451	0.154982	0.020127
	H440	H	-0.175127	0.131825	0.010541
	O441	O	0.871164	0.034355	0.121832
	H442	H	0.866223	0.032888	0.146058
	H443	H	0.869360	0.045907	0.123448
	O444	O	0.024147	0.795241	0.805252
	H445	H	0.037027	0.807768	0.812639
	H446	H	0.032513	0.777238	0.783901
	O447	O	0.677072	0.457053	0.390198
	H448	H	0.655073	0.462962	0.384190
	H449	H	0.676880	0.451299	0.380835
	O450	O	0.519341	0.710093	0.718887
	H451	H	0.519995	0.718906	0.730608
	H452	H	0.545955	0.707420	0.708442
	O453	O	0.709737	0.296413	0.429032
	H454	H	0.710133	0.281252	0.426573
	H455	H	0.713052	0.312007	0.433804
