data_Molecule from HDF5

_cell_length_a		16.199721
_cell_length_b		16.244314
_cell_length_c		16.155669
_cell_angle_alpha	89.745516
_cell_angle_beta	90.076492
_cell_angle_gamma	89.975732
_symmetry_space_group_name_H-M	'P 1'
_symmetry_Int_Tables_number		1

loop_
	_symmetry_equiv_pos_as_xyz
	x,y,z

loop_
	_atom_site_label
	_atom_site_type_symbol
	_atom_site_fract_x
	_atom_site_fract_y
	_atom_site_fract_z
	H0	H	0.403203	0.835095	0.709167
	H1	H	0.599357	0.164166	0.706922
	H2	H	0.600366	0.833802	0.282997
	H3	H	0.404726	0.162983	0.278315
	H4	H	0.716128	0.400113	0.828296
	H5	H	0.716096	0.595321	0.159143
	H6	H	0.288875	0.597362	0.829033
	H7	H	0.288871	0.399361	0.159333
	H8	H	0.837738	0.714919	0.392855
	H9	H	0.166395	0.714373	0.592771
	H10	H	0.838364	0.283960	0.593524
	H11	H	0.166911	0.286264	0.394749
	H12	H	0.837187	0.401228	0.707976
	H13	H	0.168026	0.596674	0.706306
	H14	H	0.837272	0.599076	0.279595
	H15	H	0.167032	0.403249	0.281190
	H16	H	0.402009	0.713623	0.830070
	H17	H	0.601607	0.710084	0.159730
	H18	H	0.600351	0.285625	0.828770
	H19	H	0.403658	0.283811	0.159165
	H20	H	0.716986	0.834822	0.396986
	H21	H	0.717454	0.163971	0.591875
	H22	H	0.285592	0.836070	0.594157
	H23	H	0.288520	0.163572	0.393589
	H24	H	0.904313	0.336144	0.209415
	H25	H	0.098815	0.665030	0.205610
	H26	H	0.100893	0.334928	0.780378
	H27	H	0.905605	0.664111	0.779979
	H28	H	0.215419	0.902510	0.328415
	H29	H	0.215057	0.096933	0.658366
	H30	H	0.788840	0.098679	0.327749
	H31	H	0.790640	0.901060	0.658994
	H32	H	0.337906	0.213346	0.893717
	H33	H	0.666903	0.212483	0.093312
	H34	H	0.337652	0.783558	0.093274
	H35	H	0.666889	0.784568	0.896181
	H36	H	0.337632	0.899872	0.208290
	H37	H	0.668135	0.093217	0.205359
	H38	H	0.337632	0.097328	0.780277
	H39	H	0.666824	0.900556	0.781137
	H40	H	0.903027	0.215487	0.329029
	H41	H	0.101928	0.213209	0.657855
	H42	H	0.100581	0.787105	0.328159
	H43	H	0.903558	0.784156	0.657623
	H44	H	0.216064	0.334495	0.896068
	H45	H	0.219011	0.662919	0.093322
	H46	H	0.789996	0.334422	0.092577
	H47	H	0.786874	0.663192	0.892638
	H48	H	0.400586	0.119893	0.591719
	H49	H	0.602804	0.879771	0.589808
	H50	H	0.583516	0.113368	0.396783
	H51	H	0.413024	0.883555	0.401911
	H52	H	0.597138	0.405501	0.111984
	H53	H	0.592826	0.598188	0.875304
	H54	H	0.405509	0.594664	0.115376
	H55	H	0.416333	0.413735	0.880527
	H56	H	0.120415	0.588524	0.394604
	H57	H	0.882407	0.598956	0.589073
	H58	H	0.122993	0.410309	0.600325
	H59	H	0.888779	0.406585	0.415410
	H60	H	0.122968	0.392559	0.583853
	H61	H	0.887281	0.592564	0.578317
	H62	H	0.121875	0.601671	0.398172
	H63	H	0.885529	0.419703	0.394181
	H64	H	0.408303	0.583522	0.110012
	H65	H	0.600838	0.590112	0.875515
	H66	H	0.594336	0.404637	0.110769
	H67	H	0.413094	0.394997	0.874057
	H68	H	0.600605	0.114236	0.411134
	H69	H	0.592129	0.882447	0.592411
	H70	H	0.418374	0.115106	0.591636
	H71	H	0.406702	0.882481	0.406166
	H72	H	0.906948	0.620686	0.096466
	H73	H	0.089026	0.387053	0.078224
	H74	H	0.101167	0.618522	0.898295
	H75	H	0.903899	0.380284	0.900952
	H76	H	0.094028	0.901893	0.611993
	H77	H	0.089480	0.099709	0.374940
	H78	H	0.903852	0.090904	0.612584
	H79	H	0.898082	0.913495	0.373965
	H80	H	0.624109	0.103264	0.898674
	H81	H	0.382126	0.091941	0.096723
	H82	H	0.618597	0.902106	0.083816
	H83	H	0.383232	0.892065	0.906827
	H84	H	0.619727	0.908330	0.090386
	H85	H	0.384697	0.099621	0.081080
	H86	H	0.615107	0.089727	0.913279
	H87	H	0.390150	0.915011	0.910516
	H88	H	0.913752	0.088862	0.608791
	H89	H	0.102755	0.097729	0.371951
	H90	H	0.098204	0.908368	0.612021
	H91	H	0.918505	0.912945	0.379736
	H92	H	0.092110	0.615515	0.897554
	H93	H	0.107071	0.379398	0.086690
	H94	H	0.917103	0.613303	0.083316
	H95	H	0.911883	0.382000	0.897100
	H96	H	0.408581	0.113065	0.575745
	H97	H	0.595915	0.884331	0.582250
	H98	H	0.603460	0.121214	0.389699
	H99	H	0.406128	0.879765	0.399037
	H100	H	0.595857	0.402287	0.112031
	H101	H	0.590016	0.587389	0.879217
	H102	H	0.416852	0.592693	0.110999
	H103	H	0.398941	0.409010	0.874449
	H104	H	0.117264	0.592646	0.407771
	H105	H	0.886378	0.586312	0.590658
	H106	H	0.113910	0.414609	0.578577
	H107	H	0.880272	0.395890	0.395381
	H108	H	0.899805	0.617688	0.080284
	H109	H	0.090357	0.381284	0.099233
	H110	H	0.096653	0.615473	0.905733
	H111	H	0.911205	0.384721	0.905935
	H112	H	0.091180	0.907545	0.610130
	H113	H	0.094829	0.087083	0.377135
	H114	H	0.911291	0.098677	0.612474
	H115	H	0.909133	0.895057	0.371517
	H116	H	0.619619	0.082041	0.893220
	H117	H	0.388362	0.082902	0.082616
	H118	H	0.622109	0.899612	0.092071
	H119	H	0.381083	0.908438	0.888248
	C120	C	0.380264	0.007757	0.615444
	C121	C	0.624387	0.991159	0.615653
	C122	C	0.624096	0.007450	0.372430
	C123	C	0.380629	0.990621	0.372587
	C124	C	0.624334	0.375888	0.002451
	C125	C	0.623479	0.619572	0.985861
	C126	C	0.381012	0.619531	0.003137
	C127	C	0.380992	0.376897	0.985409
	C128	C	0.010554	0.622309	0.371661
	C129	C	0.993877	0.620954	0.614697
	C130	C	0.011261	0.377335	0.616285
	C131	C	0.993843	0.379145	0.373074
	C132	C	0.880342	0.508239	0.115524
	C133	C	0.124216	0.491049	0.115959
	C134	C	0.124500	0.507418	0.872403
	C135	C	0.880333	0.490865	0.872083
	C136	C	0.122993	0.878394	0.502085
	C137	C	0.123628	0.121883	0.484315
	C138	C	0.880942	0.121670	0.501980
	C139	C	0.880971	0.878524	0.484539
	C140	C	0.510695	0.120397	0.872802
	C141	C	0.494125	0.119549	0.115091
	C142	C	0.511095	0.875315	0.116871
	C143	C	0.493662	0.876705	0.872880
	C144	C	0.382540	0.884121	0.671248
	C145	C	0.620603	0.114981	0.669668
	C146	C	0.621121	0.883217	0.319612
	C147	C	0.383669	0.113935	0.316212
	C148	C	0.678822	0.379565	0.878103
	C149	C	0.678369	0.615877	0.110067
	C150	C	0.326131	0.617499	0.878816
	C151	C	0.326520	0.379083	0.110089
	C152	C	0.886615	0.676812	0.373736
	C153	C	0.117841	0.676135	0.612583
	C154	C	0.887199	0.321985	0.613976
	C155	C	0.117868	0.324342	0.375082
	C156	C	0.886633	0.380280	0.670744
	C157	C	0.118391	0.617861	0.669337
	C158	C	0.886643	0.619431	0.316966
	C159	C	0.117758	0.382339	0.318362
	C160	C	0.382667	0.675377	0.879160
	C161	C	0.621549	0.673057	0.110241
	C162	C	0.621460	0.322121	0.878243
	C163	C	0.383608	0.321650	0.109885
	C164	C	0.679029	0.883761	0.376263
	C165	C	0.679146	0.114966	0.612411
	C166	C	0.324342	0.884555	0.613897
	C167	C	0.326248	0.114457	0.373919
	C168	C	0.883502	0.384733	0.171223
	C169	C	0.120857	0.615402	0.169298
	C170	C	0.121491	0.383775	0.817971
	C171	C	0.884261	0.614793	0.817218
	C172	C	0.177891	0.881684	0.377653
	C173	C	0.177726	0.118055	0.608932
	C174	C	0.826281	0.118979	0.377385
	C175	C	0.827352	0.880584	0.609282
	C176	C	0.387288	0.175933	0.873870
	C177	C	0.618115	0.174330	0.112997
	C178	C	0.387061	0.821070	0.114148
	C179	C	0.617696	0.822398	0.875896
	C180	C	0.387166	0.878721	0.171258
	C181	C	0.618621	0.115400	0.168730
	C182	C	0.387074	0.118132	0.817270
	C183	C	0.617689	0.879947	0.818591
	C184	C	0.882977	0.177179	0.377936
	C185	C	0.121572	0.175900	0.608528
	C186	C	0.120976	0.824043	0.377687
	C187	C	0.883597	0.822662	0.608740
	C188	C	0.179033	0.383721	0.875310
	C189	C	0.180143	0.614567	0.113355
	C190	C	0.826732	0.383949	0.112944
	C191	C	0.825379	0.614392	0.873328
	C192	C	0.402594	0.093733	0.592903
	C193	C	0.603226	0.904573	0.594367
	C194	C	0.602318	0.093864	0.393197
	C195	C	0.402302	0.904262	0.395666
	C196	C	0.602169	0.397541	0.089178
	C197	C	0.601105	0.598237	0.898976
	C198	C	0.403343	0.596886	0.089901
	C199	C	0.402957	0.399268	0.898814
	C200	C	0.097452	0.600660	0.393591
	C201	C	0.907742	0.599124	0.592611
	C202	C	0.097364	0.399253	0.594256
	C203	C	0.907210	0.400875	0.395173
	C204	C	0.901640	0.594741	0.093125
	C205	C	0.102138	0.405004	0.094250
	C206	C	0.102957	0.594019	0.894050
	C207	C	0.902327	0.404773	0.894684
	C208	C	0.101094	0.899637	0.588899
	C209	C	0.102090	0.101036	0.397215
	C210	C	0.903081	0.099429	0.588945
	C211	C	0.902234	0.900609	0.397505
	C212	C	0.597398	0.098056	0.895206
	C213	C	0.407598	0.097846	0.093211
	C214	C	0.597875	0.897019	0.095144
	C215	C	0.406939	0.898720	0.895246
	Zn216	Zn	0.502009	-0.000946	0.744660
	Zn217	Zn	0.502761	-0.002224	0.244209
	Zn218	Zn	0.751590	0.498952	-0.006092
	Zn219	Zn	0.252963	0.498674	-0.005831
	Zn220	Zn	0.002008	0.750067	0.493070
	Zn221	Zn	0.002448	0.249881	0.493584
	Zn222	Zn	0.002587	0.499636	0.744091
	Zn223	Zn	0.001892	0.500607	0.244115
	Zn224	Zn	0.502435	0.747742	-0.005367
	Zn225	Zn	0.502156	0.248507	-0.005807
	Zn226	Zn	0.753471	-0.000298	0.493585
	Zn227	Zn	0.251184	0.000075	0.493565
	N228	N	0.416582	0.961623	0.672151
	N229	N	0.587499	0.036923	0.671948
	N230	N	0.587666	0.961044	0.317006
	N231	N	0.416782	0.035954	0.315229
	N232	N	0.680762	0.412383	0.956466
	N233	N	0.679424	0.583051	0.031735
	N234	N	0.325258	0.583303	0.956958
	N235	N	0.324663	0.412730	0.031835
	N236	N	0.964668	0.678420	0.407273
	N237	N	0.039680	0.678233	0.579206
	N238	N	0.965522	0.319730	0.581014
	N239	N	0.039616	0.322256	0.408458
	N240	N	0.964470	0.414085	0.672222
	N241	N	0.040425	0.584243	0.670775
	N242	N	0.964809	0.586195	0.315641
	N243	N	0.039776	0.415716	0.317163
	N244	N	0.416057	0.676865	0.957601
	N245	N	0.587943	0.675464	0.031896
	N246	N	0.588151	0.319878	0.956407
	N247	N	0.416722	0.320265	0.031412
	N248	N	0.681002	0.962042	0.408444
	N249	N	0.681735	0.036953	0.579590
	N250	N	0.322985	0.962318	0.579702
	N251	N	0.324184	0.036703	0.408262
	N252	N	0.916070	0.462776	0.172761
	N253	N	0.086857	0.537719	0.171136
	N254	N	0.088499	0.461889	0.815977
	N255	N	0.917932	0.536955	0.816501
	N256	N	0.179465	0.914599	0.455956
	N257	N	0.179435	0.085457	0.530591
	N258	N	0.824900	0.085244	0.455704
	N259	N	0.825905	0.914769	0.531330
	N260	N	0.465313	0.177408	0.907618
	N261	N	0.539672	0.176999	0.080337
	N262	N	0.465150	0.818753	0.081087
	N263	N	0.539312	0.820231	0.908902
	N264	N	0.465288	0.911802	0.173034
	N265	N	0.540658	0.081983	0.170232
	N266	N	0.464993	0.084464	0.816554
	N267	N	0.539552	0.913103	0.816723
	N268	N	0.915921	0.178988	0.456479
	N269	N	0.088475	0.178366	0.530062
	N270	N	0.087610	0.821896	0.456027
	N271	N	0.916066	0.821122	0.530026
	N272	N	0.180977	0.461561	0.908387
	N273	N	0.182704	0.536282	0.081166
	N274	N	0.824550	0.461921	0.079181
	N275	N	0.822752	0.536410	0.906769
	O276	O	0.516217	0.557124	0.549157
	H277	H	0.521677	0.558057	0.551320
	H278	H	0.518390	0.555359	0.547086
	O279	O	0.466953	0.480865	0.412329
	H280	H	0.464247	0.485960	0.411770
	H281	H	0.455983	0.475593	0.405223
	O282	O	0.506536	0.548555	0.554113
	H283	H	0.502341	0.543383	0.545916
	H284	H	0.498602	0.539319	0.541672
	O285	O	-0.572082	1.476852	1.518329
	H286	H	-0.570209	1.484218	1.506465
	H287	H	-0.559817	1.484202	1.521297
	O288	O	0.554640	0.437647	0.577601
	H289	H	0.553732	0.435883	0.589772
	H290	H	0.556201	0.441182	0.581980
	O291	O	-0.470308	-0.530139	1.556114
	H292	H	-0.469613	-0.528483	1.554012
	H293	H	-0.474295	-0.526638	1.551592
	O294	O	0.501872	0.490905	0.525045
	H295	H	0.503216	0.498407	0.531832
	H296	H	0.504461	0.494625	0.535793
	O297	O	0.540665	0.538775	0.531421
	H298	H	0.539241	0.536949	0.524992
	H299	H	0.546817	0.546750	0.536951
	O300	O	0.512773	0.526072	0.431426
	H301	H	0.523179	0.525101	0.429490
	H302	H	0.512638	0.532645	0.431273
	O303	O	0.552677	0.429452	0.425408
	H304	H	0.557670	0.418348	0.420023
	H305	H	0.549695	0.433410	0.435522
	O306	O	1.007725	0.123491	0.923286
	H307	H	0.998025	0.113178	0.929469
	H308	H	1.009944	0.128888	0.912341
	O309	O	0.560217	0.503305	0.531119
	H310	H	0.550495	0.494678	0.536809
	H311	H	0.563299	0.510053	0.543521
	O312	O	0.551450	0.461293	0.376605
	H313	H	0.552451	0.456705	0.376040
	H314	H	0.548339	0.462016	0.381107
	O315	O	1.017284	0.084195	0.948283
	H316	H	1.017864	0.090320	0.948694
	H317	H	1.020126	0.075776	0.950398
	O318	O	0.023444	0.103402	-0.072909
	H319	H	0.023296	0.110165	-0.077343
	H320	H	0.016038	0.113326	-0.086208
	O321	O	0.509800	0.530652	0.493512
	H322	H	0.503682	0.524047	0.496520
	H323	H	0.513375	0.528132	0.488216
	O324	O	0.999792	0.104192	-0.014721
	H325	H	1.000061	0.115460	-0.012906
	H326	H	1.012333	0.102370	-0.017726
	O327	O	1.031695	1.052975	-0.025484
	H328	H	1.031442	1.053924	-0.024150
	H329	H	1.028469	1.057847	-0.019709
	O330	O	0.495118	0.553432	0.447504
	H331	H	0.496442	0.549373	0.448061
	H332	H	0.496675	0.550121	0.434202
	O333	O	0.397701	0.528747	0.481067
	H334	H	0.388688	0.512065	0.479435
	H335	H	0.395967	0.536761	0.480926
