data_Molecule from HDF5

_cell_length_a		16.168368
_cell_length_b		16.379182
_cell_length_c		16.078715
_cell_angle_alpha	89.683588
_cell_angle_beta	90.210843
_cell_angle_gamma	90.059322
_symmetry_space_group_name_H-M	'P 1'
_symmetry_Int_Tables_number		1

loop_
	_symmetry_equiv_pos_as_xyz
	x,y,z

loop_
	_atom_site_label
	_atom_site_type_symbol
	_atom_site_fract_x
	_atom_site_fract_y
	_atom_site_fract_z
	H0	H	0.404587	0.838194	0.710617
	H1	H	0.601003	0.164838	0.710529
	H2	H	0.600060	0.838259	0.285477
	H3	H	0.404525	0.164966	0.279873
	H4	H	0.713794	0.405725	0.830076
	H5	H	0.717497	0.596453	0.161870
	H6	H	0.291128	0.599098	0.830648
	H7	H	0.293600	0.403531	0.162775
	H8	H	0.839688	0.718190	0.391472
	H9	H	0.167063	0.718378	0.596336
	H10	H	0.840035	0.285283	0.597581
	H11	H	0.166953	0.286862	0.395954
	H12	H	0.838000	0.405221	0.706634
	H13	H	0.169814	0.597855	0.708089
	H14	H	0.838891	0.599265	0.280452
	H15	H	0.169748	0.407266	0.286325
	H16	H	0.403544	0.716633	0.831882
	H17	H	0.605568	0.714483	0.162184
	H18	H	0.604319	0.287672	0.831527
	H19	H	0.404121	0.284915	0.160848
	H20	H	0.718524	0.840031	0.397437
	H21	H	0.719395	0.164579	0.596605
	H22	H	0.286221	0.840275	0.597179
	H23	H	0.289351	0.165589	0.396467
	H24	H	0.905772	0.338843	0.211583
	H25	H	0.102710	0.665441	0.208125
	H26	H	0.100240	0.337469	0.784749
	H27	H	0.905811	0.664423	0.781001
	H28	H	0.214502	0.908077	0.329250
	H29	H	0.215828	0.098523	0.661574
	H30	H	0.791216	0.099772	0.330616
	H31	H	0.794055	0.906399	0.663045
	H32	H	0.340516	0.218460	0.893395
	H33	H	0.668300	0.215749	0.097932
	H34	H	0.340798	0.783746	0.098356
	H35	H	0.668000	0.787175	0.897655
	H36	H	0.337674	0.904945	0.207599
	H37	H	0.669693	0.096177	0.208218
	H38	H	0.337894	0.097771	0.783643
	H39	H	0.669331	0.906039	0.786158
	H40	H	0.903146	0.217811	0.331182
	H41	H	0.103202	0.215061	0.661328
	H42	H	0.103643	0.788977	0.330280
	H43	H	0.902937	0.784957	0.660459
	H44	H	0.218063	0.337637	0.899347
	H45	H	0.221372	0.662870	0.096112
	H46	H	0.790413	0.337902	0.094426
	H47	H	0.788790	0.663403	0.895369
	H48	H	0.425147	0.110729	0.578950
	H49	H	0.597711	0.885350	0.590718
	H50	H	0.597193	0.120360	0.396240
	H51	H	0.409984	0.887800	0.408179
	H52	H	0.596577	0.401674	0.116631
	H53	H	0.588087	0.592874	0.880547
	H54	H	0.413101	0.592702	0.114007
	H55	H	0.415972	0.415477	0.881248
	H56	H	0.124082	0.600053	0.399999
	H57	H	0.886827	0.595330	0.585550
	H58	H	0.121435	0.407245	0.589110
	H59	H	0.885809	0.404259	0.408040
	H60	H	0.122770	0.407445	0.591087
	H61	H	0.886159	0.593664	0.585689
	H62	H	0.121023	0.599270	0.407029
	H63	H	0.888448	0.415265	0.407705
	H64	H	0.414035	0.592627	0.114779
	H65	H	0.595180	0.603917	0.876109
	H66	H	0.601400	0.407609	0.116337
	H67	H	0.415971	0.401759	0.877470
	H68	H	0.591978	0.116196	0.405078
	H69	H	0.598157	0.885790	0.589784
	H70	H	0.392359	0.121105	0.580296
	H71	H	0.403685	0.884395	0.403616
	H72	H	0.911099	0.618098	0.090329
	H73	H	0.096807	0.384631	0.094198
	H74	H	0.099384	0.619627	0.894545
	H75	H	0.896557	0.381038	0.903986
	H76	H	0.094630	0.912987	0.612138
	H77	H	0.099834	0.101290	0.374841
	H78	H	0.911534	0.095020	0.614699
	H79	H	0.914499	0.905094	0.377700
	H80	H	0.621947	0.095411	0.902300
	H81	H	0.389637	0.088251	0.080453
	H82	H	0.622739	0.909908	0.094124
	H83	H	0.383969	0.900315	0.906566
	H84	H	0.623028	0.902404	0.090662
	H85	H	0.384426	0.092936	0.094813
	H86	H	0.621631	0.097288	0.905988
	H87	H	0.388530	0.911985	0.908863
	H88	H	0.913465	0.095986	0.614874
	H89	H	0.096441	0.091961	0.378696
	H90	H	0.089421	0.907711	0.612469
	H91	H	0.905107	0.910395	0.375965
	H92	H	0.090321	0.614126	0.904664
	H93	H	0.097280	0.385557	0.088236
	H94	H	0.914878	0.615450	0.083707
	H95	H	0.912160	0.382125	0.889722
	H96	H	0.411905	0.123411	0.608484
	H97	H	0.599048	0.884943	0.590882
	H98	H	0.602558	0.118858	0.406490
	H99	H	0.411584	0.885998	0.400452
	H100	H	0.593281	0.408834	0.114346
	H101	H	0.602535	0.591423	0.876656
	H102	H	0.413850	0.593712	0.115219
	H103	H	0.404068	0.409648	0.875556
	H104	H	0.120497	0.593598	0.402770
	H105	H	0.885990	0.594440	0.587833
	H106	H	0.122862	0.405607	0.589032
	H107	H	0.883874	0.409902	0.397829
	H108	H	0.907636	0.617236	0.084534
	H109	H	0.101033	0.383664	0.091581
	H110	H	0.104363	0.617869	0.908550
	H111	H	0.916377	0.389047	0.910123
	H112	H	0.097468	0.906402	0.614781
	H113	H	0.089255	0.100063	0.377568
	H114	H	0.911137	0.097698	0.616463
	H115	H	0.913569	0.915328	0.379936
	H116	H	0.620689	0.093231	0.904790
	H117	H	0.384647	0.102830	0.083092
	H118	H	0.619708	0.908867	0.086516
	H119	H	0.384223	0.908753	0.897755
	C120	C	0.380924	0.010644	0.618316
	C121	C	0.626390	0.993149	0.619084
	C122	C	0.625342	0.010760	0.374901
	C123	C	0.380287	0.993877	0.373911
	C124	C	0.624813	0.379564	0.005868
	C125	C	0.625140	0.622976	0.987422
	C126	C	0.383710	0.622091	0.005372
	C127	C	0.383138	0.379721	0.987631
	C128	C	0.012931	0.625045	0.372732
	C129	C	0.995243	0.622847	0.616176
	C130	C	0.013012	0.379042	0.618011
	C131	C	0.995073	0.382062	0.376112
	C132	C	0.882624	0.509445	0.116736
	C133	C	0.126909	0.492472	0.118797
	C134	C	0.126072	0.509228	0.874797
	C135	C	0.880358	0.492186	0.872537
	C136	C	0.123568	0.881366	0.503999
	C137	C	0.124125	0.124409	0.486583
	C138	C	0.882651	0.124309	0.505693
	C139	C	0.882326	0.881025	0.487239
	C140	C	0.512383	0.123582	0.874602
	C141	C	0.495380	0.122418	0.116452
	C142	C	0.512746	0.878897	0.119074
	C143	C	0.494886	0.879464	0.875680
	C144	C	0.383731	0.887423	0.673148
	C145	C	0.622753	0.115859	0.673449
	C146	C	0.621440	0.887558	0.321713
	C147	C	0.383580	0.116196	0.317726
	C148	C	0.678061	0.383893	0.879997
	C149	C	0.680411	0.618324	0.112372
	C150	C	0.328181	0.619960	0.880485
	C151	C	0.329392	0.382595	0.112580
	C152	C	0.888879	0.680238	0.372185
	C153	C	0.118575	0.679169	0.615398
	C154	C	0.888969	0.324067	0.616451
	C155	C	0.118480	0.325918	0.377118
	C156	C	0.888152	0.383594	0.670816
	C157	C	0.119790	0.619363	0.671096
	C158	C	0.888508	0.620711	0.317432
	C159	C	0.120013	0.386040	0.322931
	C160	C	0.383974	0.678401	0.881126
	C161	C	0.624891	0.677039	0.112371
	C162	C	0.623471	0.325144	0.880839
	C163	C	0.384355	0.323488	0.111705
	C164	C	0.680398	0.888427	0.377697
	C165	C	0.681340	0.115864	0.616533
	C166	C	0.324805	0.888414	0.616840
	C167	C	0.326291	0.116697	0.375685
	C168	C	0.885469	0.387157	0.173218
	C169	C	0.123638	0.616032	0.171779
	C170	C	0.121943	0.386328	0.821533
	C171	C	0.884525	0.615341	0.818066
	C172	C	0.177952	0.885792	0.379048
	C173	C	0.179013	0.120131	0.612020
	C174	C	0.828288	0.120836	0.380355
	C175	C	0.829551	0.884430	0.612915
	C176	C	0.389015	0.179374	0.875014
	C177	C	0.619292	0.177719	0.116823
	C178	C	0.389188	0.822935	0.117543
	C179	C	0.618881	0.825088	0.877709
	C180	C	0.387870	0.882840	0.172134
	C181	C	0.620004	0.118054	0.171546
	C182	C	0.387536	0.119326	0.820493
	C183	C	0.619416	0.884243	0.822305
	C184	C	0.883736	0.179461	0.380647
	C185	C	0.122922	0.177808	0.611823
	C186	C	0.122556	0.826735	0.379667
	C187	C	0.883387	0.823939	0.611324
	C188	C	0.180545	0.386576	0.878389
	C189	C	0.182335	0.614956	0.115787
	C190	C	0.827739	0.386758	0.115253
	C191	C	0.825777	0.614579	0.874633
	C192	C	0.403238	0.096323	0.595853
	C193	C	0.604685	0.907375	0.597000
	C194	C	0.603604	0.096314	0.396276
	C195	C	0.401982	0.908220	0.397119
	C196	C	0.603593	0.399980	0.093084
	C197	C	0.602058	0.602373	0.900415
	C198	C	0.406971	0.599745	0.092497
	C199	C	0.405496	0.402256	0.900455
	C200	C	0.099488	0.603982	0.396470
	C201	C	0.908705	0.601156	0.593101
	C202	C	0.099892	0.400276	0.596205
	C203	C	0.908454	0.403596	0.397991
	C204	C	0.904657	0.594742	0.093065
	C205	C	0.104834	0.406790	0.097758
	C206	C	0.104376	0.595177	0.896066
	C207	C	0.901974	0.406359	0.894741
	C208	C	0.100691	0.902657	0.590661
	C209	C	0.101773	0.103856	0.399574
	C210	C	0.905136	0.102593	0.592774
	C211	C	0.904334	0.903728	0.400225
	C212	C	0.599093	0.101655	0.897318
	C213	C	0.408653	0.100975	0.093058
	C214	C	0.599313	0.900585	0.096901
	C215	C	0.408002	0.900560	0.897931
	Zn216	Zn	0.503230	0.001404	0.747264
	Zn217	Zn	0.503120	0.001516	0.245709
	Zn218	Zn	0.752112	0.500646	-0.004193
	Zn219	Zn	0.255704	0.501111	-0.003378
	Zn220	Zn	0.002764	0.752336	0.494685
	Zn221	Zn	0.003501	0.252082	0.496471
	Zn222	Zn	0.003993	0.500982	0.745147
	Zn223	Zn	0.004407	0.502356	0.246726
	Zn224	Zn	0.504102	0.750891	-0.002516
	Zn225	Zn	0.504582	0.251923	-0.003911
	Zn226	Zn	0.755100	0.002617	0.496579
	Zn227	Zn	0.251491	0.003008	0.496122
	N228	N	0.417880	0.964334	0.674142
	N229	N	0.589207	0.038632	0.674914
	N230	N	0.587740	0.964589	0.319963
	N231	N	0.416460	0.038876	0.316779
	N232	N	0.679227	0.416944	0.958573
	N233	N	0.680609	0.585206	0.033944
	N234	N	0.327844	0.585524	0.958841
	N235	N	0.328656	0.417008	0.034310
	N236	N	0.967293	0.683225	0.406105
	N237	N	0.040077	0.681473	0.582045
	N238	N	0.967609	0.321182	0.584258
	N239	N	0.039964	0.323358	0.409778
	N240	N	0.966196	0.417385	0.671751
	N241	N	0.042108	0.584978	0.671489
	N242	N	0.966651	0.587515	0.317496
	N243	N	0.042216	0.420081	0.322009
	N244	N	0.417532	0.679971	0.959889
	N245	N	0.591178	0.680096	0.033729
	N246	N	0.591060	0.322310	0.959965
	N247	N	0.417164	0.321658	0.032814
	N248	N	0.682942	0.966079	0.410191
	N249	N	0.683752	0.038571	0.583370
	N250	N	0.322975	0.965965	0.583241
	N251	N	0.324294	0.039514	0.410165
	N252	N	0.918621	0.464470	0.174358
	N253	N	0.089918	0.538793	0.173870
	N254	N	0.088737	0.463675	0.819226
	N255	N	0.917750	0.538043	0.816637
	N256	N	0.178638	0.919160	0.457277
	N257	N	0.179704	0.087293	0.533416
	N258	N	0.827341	0.087311	0.458934
	N259	N	0.828725	0.919038	0.534656
	N260	N	0.467698	0.182015	0.908068
	N261	N	0.540860	0.180537	0.083210
	N262	N	0.467921	0.820381	0.085132
	N263	N	0.540405	0.822190	0.910264
	N264	N	0.465518	0.917006	0.173075
	N265	N	0.541838	0.084504	0.171578
	N266	N	0.465270	0.085436	0.820060
	N267	N	0.541283	0.917529	0.821062
	N268	N	0.916969	0.181707	0.459628
	N269	N	0.089732	0.180818	0.533008
	N270	N	0.089283	0.824020	0.458278
	N271	N	0.915488	0.821874	0.532266
	N272	N	0.183086	0.464178	0.910857
	N273	N	0.184590	0.537396	0.083548
	N274	N	0.825997	0.463717	0.080728
	N275	N	0.823257	0.537064	0.907936
	O276	O	0.988423	0.917121	0.022369
	H277	H	0.986131	0.918537	0.026792
	H278	H	0.979078	0.919198	0.026051
	O279	O	-0.023853	-0.061840	-0.039266
	H280	H	-0.032764	-0.062222	-0.043300
	H281	H	-0.019005	-0.064155	-0.037767
	O282	O	-0.027755	-0.029915	1.044098
	H283	H	-0.023537	-0.032161	1.042142
	H284	H	-0.024488	-0.041611	1.052599
	O285	O	0.486767	0.510818	0.541620
	H286	H	0.482483	0.517584	0.533682
	H287	H	0.486072	0.522053	0.549394
	O288	O	0.546411	0.540631	0.553532
	H289	H	0.554606	0.541372	0.561356
	H290	H	0.540193	0.536272	0.547121
	O291	O	0.549908	0.521944	0.435080
	H292	H	0.553798	0.524058	0.427956
	H293	H	0.560334	0.514321	0.433034
	O294	O	-0.424236	-0.418646	0.504422
	H295	H	-0.409907	-0.423555	0.511009
	H296	H	-0.418980	-0.417622	0.506516
	O297	O	0.557273	0.556539	0.517602
	H298	H	0.558407	0.544034	0.522552
	H299	H	0.563297	0.556446	0.515032
	O300	O	0.039353	0.933105	1.003702
	H301	H	0.038698	0.936284	0.997584
	H302	H	0.035286	0.924613	1.003501
	O303	O	0.520926	0.567433	0.550877
	H304	H	0.504992	0.560622	0.550695
	H305	H	0.515268	0.575794	0.544851
	O306	O	-0.054759	-0.026976	0.997479
	H307	H	-0.050716	-0.024906	0.997384
	H308	H	-0.053119	-0.029630	0.998318
	O309	O	1.016200	0.961876	0.923138
	H310	H	1.010697	0.966200	0.919313
	H311	H	1.009268	0.969166	0.915498
	O312	O	0.543570	0.475423	0.491959
	H313	H	0.528584	0.471133	0.505191
	H314	H	0.535560	0.475501	0.487456
	O315	O	0.455802	0.475408	0.498827
	H316	H	0.453842	0.487810	0.499143
	H317	H	0.451175	0.484860	0.491309
	O318	O	-0.009009	0.969158	-0.026955
	H319	H	-0.016183	0.975110	-0.022378
	H320	H	-0.015023	0.964216	-0.027094
	O321	O	0.933908	0.992743	0.010340
	H322	H	0.943224	0.985119	0.007309
	H323	H	0.930449	0.991045	0.008060
