data_Molecule from HDF5

_cell_length_a		16.291538
_cell_length_b		16.476871
_cell_length_c		16.213493
_cell_angle_alpha	89.877451
_cell_angle_beta	89.987656
_cell_angle_gamma	90.019271
_symmetry_space_group_name_H-M	'P 1'
_symmetry_Int_Tables_number		1

loop_
	_symmetry_equiv_pos_as_xyz
	x,y,z

loop_
	_atom_site_label
	_atom_site_type_symbol
	_atom_site_fract_x
	_atom_site_fract_y
	_atom_site_fract_z
	H0	H	0.396954	0.842851	0.718477
	H1	H	0.601791	0.162163	0.721134
	H2	H	0.604190	0.843909	0.279363
	H3	H	0.393467	0.160269	0.277820
	H4	H	0.714801	0.403450	0.836142
	H5	H	0.718151	0.605800	0.160742
	H6	H	0.280833	0.605179	0.837620
	H7	H	0.280521	0.399364	0.161203
	H8	H	0.837918	0.727648	0.388629
	H9	H	0.154333	0.726915	0.608018
	H10	H	0.837273	0.282258	0.605293
	H11	H	0.157017	0.283458	0.394011
	H12	H	0.835238	0.401325	0.717273
	H13	H	0.157090	0.605525	0.716878
	H14	H	0.835506	0.603258	0.281757
	H15	H	0.160025	0.402903	0.283509
	H16	H	0.392991	0.723746	0.839834
	H17	H	0.606851	0.724244	0.159741
	H18	H	0.603935	0.283984	0.838005
	H19	H	0.392975	0.280581	0.158537
	H20	H	0.720444	0.844895	0.395109
	H21	H	0.718638	0.162575	0.605371
	H22	H	0.276166	0.844595	0.606551
	H23	H	0.278510	0.162437	0.396156
	H24	H	0.898272	0.342570	0.216332
	H25	H	0.104236	0.662896	0.220044
	H26	H	0.098675	0.344208	0.779351
	H27	H	0.890640	0.661688	0.775959
	H28	H	0.215600	0.903379	0.339273
	H29	H	0.215232	0.108062	0.662891
	H30	H	0.777179	0.108576	0.339001
	H31	H	0.780703	0.902325	0.662385
	H32	H	0.340002	0.224227	0.891506
	H33	H	0.657885	0.223612	0.106170
	H34	H	0.340219	0.777992	0.109676
	H35	H	0.658123	0.780675	0.892145
	H36	H	0.336561	0.899436	0.218185
	H37	H	0.658488	0.104828	0.219340
	H38	H	0.335932	0.102655	0.784838
	H39	H	0.659498	0.900817	0.781752
	H40	H	0.893834	0.221977	0.337280
	H41	H	0.100468	0.224325	0.660437
	H42	H	0.104483	0.783798	0.340025
	H43	H	0.887358	0.780376	0.658168
	H44	H	0.216310	0.343623	0.895595
	H45	H	0.220960	0.661009	0.104396
	H46	H	0.778814	0.343622	0.102381
	H47	H	0.775686	0.662356	0.891571
	H48	H	0.403940	0.119096	0.595675
	H49	H	0.588550	0.890042	0.591929
	H50	H	0.586129	0.115381	0.410389
	H51	H	0.404196	0.884616	0.398934
	H52	H	0.593505	0.407443	0.118640
	H53	H	0.587662	0.580985	0.888051
	H54	H	0.416216	0.588074	0.111345
	H55	H	0.410264	0.402856	0.880064
	H56	H	0.114111	0.602117	0.410425
	H57	H	0.880308	0.600336	0.584206
	H58	H	0.107257	0.419617	0.582147
	H59	H	0.883513	0.407781	0.418806
	H60	H	0.114249	0.415398	0.596468
	H61	H	0.886213	0.588950	0.578037
	H62	H	0.108938	0.593378	0.417895
	H63	H	0.883585	0.421616	0.405691
	H64	H	0.411337	0.594671	0.115744
	H65	H	0.575019	0.600376	0.887010
	H66	H	0.589688	0.419702	0.113116
	H67	H	0.399807	0.415841	0.881619
	H68	H	0.586720	0.115776	0.411186
	H69	H	0.587187	0.890812	0.588666
	H70	H	0.410487	0.116267	0.592162
	H71	H	0.418402	0.894272	0.415360
	H72	H	0.904427	0.618013	0.090013
	H73	H	0.087362	0.388834	0.095654
	H74	H	0.081576	0.615274	0.908154
	H75	H	0.907519	0.387927	0.900891
	H76	H	0.078357	0.914919	0.613120
	H77	H	0.088627	0.085686	0.387446
	H78	H	0.909199	0.097206	0.615749
	H79	H	0.910290	0.911780	0.383700
	H80	H	0.617137	0.101725	0.909064
	H81	H	0.385291	0.092417	0.082532
	H82	H	0.609612	0.919572	0.085511
	H83	H	0.382465	0.909442	0.911339
	H84	H	0.614727	0.911974	0.095238
	H85	H	0.384529	0.087735	0.090043
	H86	H	0.611071	0.091919	0.919592
	H87	H	0.385454	0.911949	0.915309
	H88	H	0.906645	0.093498	0.615022
	H89	H	0.081058	0.100095	0.385119
	H90	H	0.085956	0.910111	0.617826
	H91	H	0.905103	0.918327	0.383697
	H92	H	0.092446	0.616145	0.915650
	H93	H	0.085506	0.391621	0.087158
	H94	H	0.910973	0.616601	0.091743
	H95	H	0.914276	0.394124	0.912695
	H96	H	0.403899	0.116929	0.588026
	H97	H	0.589643	0.889572	0.589525
	H98	H	0.586877	0.116364	0.410038
	H99	H	0.395768	0.888373	0.421506
	H100	H	0.580499	0.409066	0.112640
	H101	H	0.596883	0.599656	0.877820
	H102	H	0.407786	0.586455	0.113849
	H103	H	0.415604	0.417265	0.887181
	H104	H	0.112506	0.590381	0.405769
	H105	H	0.881375	0.588040	0.591774
	H106	H	0.113387	0.404977	0.584310
	H107	H	0.877231	0.404302	0.401105
	H108	H	0.908986	0.616321	0.085051
	H109	H	0.093883	0.388764	0.088825
	H110	H	0.092843	0.620742	0.902869
	H111	H	0.900338	0.389394	0.913950
	H112	H	0.087041	0.919977	0.614813
	H113	H	0.096636	0.098536	0.380730
	H114	H	0.910946	0.093166	0.614072
	H115	H	0.912834	0.918810	0.387291
	H116	H	0.613879	0.087168	0.904197
	H117	H	0.381476	0.095544	0.089669
	H118	H	0.613619	0.906949	0.082595
	H119	H	0.384372	0.913837	0.910811
	C120	C	0.374998	0.012229	0.623849
	C121	C	0.619923	0.995117	0.622393
	C122	C	0.619653	0.011170	0.378385
	C123	C	0.375499	0.994159	0.379360
	C124	C	0.619330	0.382104	0.007743
	C125	C	0.619757	0.624746	0.990720
	C126	C	0.378555	0.622939	0.007817
	C127	C	0.376718	0.380708	0.989600
	C128	C	0.005807	0.626249	0.377754
	C129	C	0.987750	0.624839	0.618721
	C130	C	0.005498	0.382090	0.620060
	C131	C	0.988431	0.381849	0.377994
	C132	C	0.877139	0.511400	0.120306
	C133	C	0.121163	0.494429	0.122268
	C134	C	0.119055	0.511768	0.877603
	C135	C	0.874924	0.494991	0.876276
	C136	C	0.116984	0.883370	0.509221
	C137	C	0.119389	0.126121	0.491480
	C138	C	0.876314	0.126121	0.508362
	C139	C	0.876489	0.883653	0.490858
	C140	C	0.507588	0.124024	0.878810
	C141	C	0.489381	0.123970	0.120424
	C142	C	0.507197	0.880516	0.121010
	C143	C	0.490033	0.880711	0.879805
	C144	C	0.376233	0.891133	0.680711
	C145	C	0.621057	0.114427	0.682000
	C146	C	0.621992	0.891658	0.319201
	C147	C	0.374712	0.113185	0.318535
	C148	C	0.676737	0.383184	0.885276
	C149	C	0.679471	0.625527	0.111990
	C150	C	0.319625	0.624508	0.886389
	C151	C	0.318878	0.380154	0.111988
	C152	C	0.885765	0.686504	0.372627
	C153	C	0.107306	0.685797	0.623886
	C154	C	0.884842	0.322601	0.622665
	C155	C	0.109700	0.323594	0.376549
	C156	C	0.883908	0.381962	0.678405
	C157	C	0.108482	0.625579	0.678457
	C158	C	0.884312	0.624811	0.319196
	C159	C	0.110918	0.383052	0.321506
	C160	C	0.375622	0.683377	0.887442
	C161	C	0.623654	0.684251	0.111611
	C162	C	0.621368	0.323888	0.885908
	C163	C	0.374941	0.320977	0.110905
	C164	C	0.680355	0.892421	0.376776
	C165	C	0.678865	0.114775	0.623959
	C166	C	0.315853	0.892375	0.625342
	C167	C	0.317392	0.114244	0.377528
	C168	C	0.877882	0.390797	0.178131
	C169	C	0.122979	0.614406	0.181127
	C170	C	0.118546	0.391821	0.818766
	C171	C	0.872986	0.614433	0.816064
	C172	C	0.176414	0.883709	0.387653
	C173	C	0.176756	0.127199	0.613755
	C174	C	0.816692	0.127284	0.387152
	C175	C	0.818113	0.882437	0.613011
	C176	C	0.387302	0.183586	0.875180
	C177	C	0.609914	0.183476	0.123673
	C178	C	0.387576	0.819165	0.126028
	C179	C	0.610464	0.821115	0.875799
	C180	C	0.385636	0.879663	0.180147
	C181	C	0.610257	0.124523	0.180227
	C182	C	0.385399	0.122985	0.821763
	C183	C	0.611257	0.880887	0.820607
	C184	C	0.874793	0.183829	0.386422
	C185	C	0.119614	0.184961	0.612529
	C186	C	0.120756	0.824227	0.388137
	C187	C	0.871450	0.821781	0.610855
	C188	C	0.176702	0.391342	0.876907
	C189	C	0.181306	0.613676	0.123510
	C190	C	0.818602	0.391267	0.121156
	C191	C	0.815458	0.614668	0.873733
	C192	C	0.399103	0.095662	0.599246
	C193	C	0.595521	0.911663	0.597437
	C194	C	0.593958	0.094293	0.403287
	C195	C	0.399307	0.910745	0.404488
	C196	C	0.594888	0.405306	0.092646
	C197	C	0.594023	0.600721	0.906254
	C198	C	0.404447	0.597228	0.091848
	C199	C	0.401253	0.405069	0.905004
	C200	C	0.089966	0.602411	0.403755
	C201	C	0.904173	0.599732	0.592142
	C202	C	0.089700	0.406472	0.594894
	C203	C	0.903626	0.404762	0.401581
	C204	C	0.901084	0.595194	0.095866
	C205	C	0.096153	0.411333	0.097593
	C206	C	0.095799	0.595424	0.902031
	C207	C	0.900047	0.412065	0.901784
	C208	C	0.091125	0.907980	0.593182
	C209	C	0.095714	0.101842	0.406538
	C210	C	0.901643	0.101747	0.593058
	C211	C	0.902053	0.908938	0.406812
	C212	C	0.592079	0.100448	0.903775
	C213	C	0.405543	0.099182	0.094850
	C214	C	0.590823	0.905470	0.095358
	C215	C	0.406074	0.904703	0.905177
	Zn216	Zn	0.498272	0.002792	0.751628
	Zn217	Zn	0.497709	0.001445	0.249095
	Zn218	Zn	0.747370	0.503759	-0.001184
	Zn219	Zn	0.249223	0.502737	-0.001124
	Zn220	Zn	-0.004130	0.754772	0.499138
	Zn221	Zn	-0.002854	0.253818	0.498668
	Zn222	Zn	-0.003429	0.504017	0.747861
	Zn223	Zn	-0.001923	0.503481	0.250297
	Zn224	Zn	0.498965	0.752246	0.000347
	Zn225	Zn	0.499153	0.252774	-0.001571
	Zn226	Zn	0.749054	0.004156	0.500371
	Zn227	Zn	0.246210	0.004051	0.502249
	N228	N	0.411976	0.966738	0.680234
	N229	N	0.584830	0.039061	0.680747
	N230	N	0.584969	0.966576	0.320015
	N231	N	0.410044	0.037476	0.319406
	N232	N	0.675758	0.418594	0.961970
	N233	N	0.677143	0.589282	0.035833
	N234	N	0.321418	0.587457	0.962386
	N235	N	0.319780	0.416378	0.035569
	N236	N	0.962514	0.687746	0.408105
	N237	N	0.031186	0.685351	0.587443
	N238	N	0.961378	0.322493	0.587075
	N239	N	0.032496	0.322539	0.410804
	N240	N	0.959908	0.418429	0.676862
	N241	N	0.032934	0.588608	0.675726
	N242	N	0.960041	0.588243	0.322013
	N243	N	0.034683	0.418478	0.322275
	N244	N	0.411501	0.682344	0.964145
	N245	N	0.587410	0.683844	0.035060
	N246	N	0.586386	0.323022	0.963149
	N247	N	0.410150	0.320988	0.033907
	N248	N	0.678918	0.967736	0.412932
	N249	N	0.678394	0.039543	0.587634
	N250	N	0.314624	0.968792	0.591089
	N251	N	0.317715	0.039308	0.414774
	N252	N	0.913273	0.466526	0.177847
	N253	N	0.086703	0.539096	0.181008
	N254	N	0.083367	0.467568	0.818983
	N255	N	0.909415	0.539154	0.817661
	N256	N	0.174228	0.919817	0.463901
	N257	N	0.176862	0.091486	0.537182
	N258	N	0.817541	0.092027	0.464030
	N259	N	0.820878	0.920168	0.537292
	N260	N	0.464241	0.184337	0.909893
	N261	N	0.533519	0.183533	0.087525
	N262	N	0.464045	0.819482	0.090251
	N263	N	0.534138	0.820895	0.911901
	N264	N	0.460982	0.917291	0.177147
	N265	N	0.534406	0.088150	0.178410
	N266	N	0.461390	0.086754	0.823682
	N267	N	0.535461	0.917192	0.822777
	N268	N	0.911030	0.183117	0.462955
	N269	N	0.084838	0.184456	0.535397
	N270	N	0.084487	0.824011	0.464692
	N271	N	0.906871	0.822202	0.533942
	N272	N	0.177557	0.467090	0.912277
	N273	N	0.180567	0.538026	0.087886
	N274	N	0.818100	0.467321	0.085957
	N275	N	0.816492	0.539472	0.910479
	O276	O	0.642788	0.346898	0.504665
	H277	H	0.647807	0.338401	0.510581
	H278	H	0.648887	0.350928	0.502004
	O279	O	0.435769	0.710701	0.305148
	H280	H	0.437560	0.723102	0.291873
	H281	H	0.428367	0.713404	0.310775
	O282	O	0.315538	0.438026	0.529762
	H283	H	0.328604	0.439512	0.524558
	H284	H	0.313627	0.440057	0.522764
	O285	O	1.175058	0.190482	0.020234
	H286	H	1.169629	0.173316	0.036252
	H287	H	1.194971	0.208604	0.024596
	O288	O	0.164735	0.011788	0.939569
	H289	H	0.170725	0.011414	0.914218
	H290	H	0.141277	0.012493	0.946998
	O291	O	0.653149	0.479207	0.353605
	H292	H	0.651672	0.487614	0.353558
	H293	H	0.665713	0.476199	0.344726
	O294	O	0.501796	0.369306	0.326928
	H295	H	0.510940	0.373769	0.321290
	H296	H	0.500580	0.385477	0.333560
	O297	O	0.848184	0.991871	0.839853
	H298	H	0.840100	0.989682	0.825779
	H299	H	0.837188	0.998734	0.847524
	O300	O	0.034186	-0.121528	0.127978
	H301	H	0.021208	-0.128630	0.152053
	H302	H	0.013807	-0.132317	0.123027
	O303	O	0.524254	0.299365	0.482724
	H304	H	0.541265	0.294259	0.476356
	H305	H	0.535736	0.308298	0.482555
	O306	O	0.807288	-0.015950	0.196659
	H307	H	0.803682	0.005898	0.182579
	H308	H	0.797742	-0.009562	0.200149
	O309	O	0.474909	0.474950	0.484216
	H310	H	0.482131	0.460548	0.486491
	H311	H	0.478044	0.473158	0.478001
	O312	O	0.816904	0.823121	0.176453
	H313	H	0.811091	0.862510	0.168960
	H314	H	0.818256	0.816274	0.168147
	O315	O	0.313606	0.381393	0.551668
	H316	H	0.321181	0.387061	0.558822
	H317	H	0.320572	0.363750	0.544218
	O318	O	0.559305	0.678664	0.468699
	H319	H	0.566695	0.689679	0.469933
	H320	H	0.546642	0.681632	0.466973
	O321	O	1.119276	0.077728	1.123896
	H322	H	1.130094	0.052639	1.109931
	H323	H	1.131560	0.076307	1.122221
	O324	O	-0.038406	-0.002552	1.135248
	H325	H	-0.029810	0.015564	1.138284
	H326	H	-0.038650	0.012510	1.136335
	O327	O	0.307941	0.578211	0.363080
	H328	H	0.312989	0.565095	0.391276
	H329	H	0.275006	0.575037	0.353286
	O330	O	0.677723	0.591791	0.530180
	H331	H	0.662191	0.589378	0.528078
	H332	H	0.679950	0.547668	0.540723
	O333	O	1.032599	0.959721	0.893433
	H334	H	1.021887	0.959293	0.894161
	H335	H	1.026667	0.959623	0.911219
	O336	O	0.477229	0.399041	0.304347
	H337	H	0.467883	0.411739	0.301838
	H338	H	0.469463	0.396979	0.284983
	O339	O	0.977961	0.180388	1.148922
	H340	H	1.015039	0.182215	1.138402
	H341	H	0.981288	0.183857	1.162910
	O342	O	0.074388	1.033986	0.988594
	H343	H	0.076505	1.025927	0.996029
	H344	H	0.083421	1.037441	0.988933
	O345	O	0.320571	0.685765	0.449486
	H346	H	0.319988	0.657568	0.451298
	H347	H	0.338158	0.679850	0.446409
	O348	O	0.514148	0.595184	0.706014
	H349	H	0.511543	0.597639	0.698262
	H350	H	0.519090	0.603028	0.723328
	O351	O	0.067676	0.054560	-0.001029
	H352	H	0.068985	0.050235	-0.005498
	H353	H	0.056049	0.056629	0.010257
	O354	O	1.102416	0.816480	-0.154763
	H355	H	1.118175	0.811261	-0.149788
	H356	H	1.105525	0.806753	-0.151259
	O357	O	-0.118464	0.867969	0.021143
	H358	H	-0.114684	0.883541	0.030478
	H359	H	-0.137103	0.850919	0.023467
	O360	O	0.593674	0.504646	0.653127
	H361	H	0.575181	0.490287	0.652618
	H362	H	0.588614	0.510107	0.638264
	O363	O	0.463525	0.457368	0.555428
	H364	H	0.438253	0.449672	0.544541
	H365	H	0.444687	0.448636	0.566594
	O366	O	0.646193	0.678168	0.499537
	H367	H	0.637607	0.672916	0.529358
	H368	H	0.676722	0.701269	0.505644
	O369	O	0.385157	0.329095	0.398265
	H370	H	0.406336	0.320239	0.378749
	H371	H	0.393134	0.306619	0.393028
	O372	O	0.597220	0.538617	0.398393
	H373	H	0.603894	0.557366	0.397987
	H374	H	0.587685	0.545999	0.392077
	O375	O	0.405152	0.435734	0.671768
	H376	H	0.424909	0.443983	0.687679
	H377	H	0.409525	0.441645	0.657204
	O378	O	0.603064	0.445391	0.455384
	H379	H	0.593349	0.445349	0.469185
	H380	H	0.588843	0.456593	0.450641
	O381	O	0.644419	0.390218	0.625656
	H382	H	0.648918	0.397036	0.612986
	H383	H	0.634947	0.396699	0.638128
	O384	O	0.182623	0.871702	0.812596
	H385	H	0.192664	0.868672	0.828645
	H386	H	0.188229	0.886109	0.809442
	O387	O	0.975857	0.789889	0.209865
	H388	H	0.966540	0.802079	0.225739
	H389	H	0.952533	0.773464	0.232967
	O390	O	0.300652	0.413796	0.667946
	H391	H	0.296828	0.429414	0.668998
	H392	H	0.292321	0.402003	0.652503
	O393	O	0.852905	0.145529	0.829063
	H394	H	0.860084	0.141005	0.817589
	H395	H	0.870056	0.142994	0.834839
	O396	O	0.089564	0.935551	0.962897
	H397	H	0.084949	0.920230	0.945446
	H398	H	0.086745	0.943243	0.956060
	O399	O	0.522377	0.653376	0.590682
	H400	H	0.534079	0.658117	0.574856
	H401	H	0.524767	0.650317	0.583079
	O402	O	0.871308	-0.013256	0.886697
	H403	H	0.878460	-0.018138	0.889725
	H404	H	0.864841	-0.009079	0.886007
	O405	O	-0.026600	0.155110	-0.054823
	H406	H	-0.014703	0.164916	-0.048335
	H407	H	-0.027041	0.146635	-0.062471
	O408	O	0.814217	1.118218	0.920110
	H409	H	0.813996	1.127642	0.900342
	H410	H	0.816837	1.136328	0.897955
	O411	O	0.943230	1.044793	-0.075725
	H412	H	0.943261	1.049553	-0.072006
	H413	H	0.948273	1.043558	-0.072058
	O414	O	0.031328	-0.065379	1.007588
	H415	H	0.010057	-0.084419	1.014559
	H416	H	0.032220	-0.069238	0.993378
	O417	O	0.290164	0.642168	0.450840
	H418	H	0.289378	0.646088	0.440435
	H419	H	0.266132	0.654516	0.434558
	O420	O	0.186649	0.816282	0.033259
	H421	H	0.168180	0.810082	0.034722
	H422	H	0.184835	0.808715	0.032305
	O423	O	1.105664	0.143597	0.026466
	H424	H	1.117958	0.130858	0.015928
	H425	H	1.110641	0.130574	0.014060
	O426	O	-0.139035	0.092148	0.978503
	H427	H	-0.119065	0.097417	0.974308
	H428	H	-0.137799	0.094240	0.974281
	O429	O	0.566290	0.476578	0.494729
	H430	H	0.557984	0.480441	0.497297
	H431	H	0.558440	0.476437	0.484315
