data_Molecule from HDF5

_cell_length_a		16.222481
_cell_length_b		16.328861
_cell_length_c		15.988925
_cell_angle_alpha	90.744846
_cell_angle_beta	89.624572
_cell_angle_gamma	89.942240
_symmetry_space_group_name_H-M	'P 1'
_symmetry_Int_Tables_number		1

loop_
	_symmetry_equiv_pos_as_xyz
	x,y,z

loop_
	_atom_site_label
	_atom_site_type_symbol
	_atom_site_fract_x
	_atom_site_fract_y
	_atom_site_fract_z
	H0	H	0.406638	0.835181	0.704815
	H1	H	0.598453	0.164198	0.707234
	H2	H	0.601102	0.836131	0.276374
	H3	H	0.409325	0.165549	0.287259
	H4	H	0.717313	0.399479	0.827591
	H5	H	0.713745	0.599828	0.161598
	H6	H	0.293994	0.593473	0.826812
	H7	H	0.290405	0.403270	0.160436
	H8	H	0.840680	0.713764	0.396368
	H9	H	0.166998	0.716724	0.597579
	H10	H	0.841175	0.285801	0.596751
	H11	H	0.167066	0.281188	0.390997
	H12	H	0.838632	0.407127	0.704943
	H13	H	0.168533	0.597456	0.707298
	H14	H	0.838041	0.592614	0.287008
	H15	H	0.168902	0.400301	0.279432
	H16	H	0.406246	0.710193	0.827247
	H17	H	0.602957	0.719010	0.158691
	H18	H	0.606078	0.281450	0.828417
	H19	H	0.403755	0.288311	0.160421
	H20	H	0.720471	0.835838	0.389214
	H21	H	0.719666	0.161943	0.596332
	H22	H	0.288108	0.835747	0.592145
	H23	H	0.286721	0.161516	0.395876
	H24	H	0.906908	0.333942	0.204556
	H25	H	0.098441	0.663027	0.209481
	H26	H	0.101222	0.335366	0.778193
	H27	H	0.909209	0.664547	0.785947
	H28	H	0.214536	0.900226	0.326794
	H29	H	0.214408	0.098804	0.661439
	H30	H	0.791891	0.095288	0.327925
	H31	H	0.789883	0.902980	0.660001
	H32	H	0.340349	0.214056	0.895437
	H33	H	0.666929	0.217527	0.096371
	H34	H	0.339771	0.786668	0.095371
	H35	H	0.666448	0.781417	0.887676
	H36	H	0.338141	0.907127	0.205328
	H37	H	0.669419	0.098078	0.206559
	H38	H	0.338137	0.093928	0.785298
	H39	H	0.668465	0.901717	0.778081
	H40	H	0.904752	0.211171	0.328518
	H41	H	0.101861	0.215763	0.660839
	H42	H	0.106013	0.781408	0.329906
	H43	H	0.904480	0.789752	0.660904
	H44	H	0.220656	0.335835	0.890811
	H45	H	0.218913	0.662514	0.097609
	H46	H	0.785315	0.336344	0.094037
	H47	H	0.787778	0.661978	0.896635
	H48	H	0.409765	0.115270	0.585388
	H49	H	0.588925	0.885940	0.581176
	H50	H	0.605391	0.116160	0.409968
	H51	H	0.404632	0.882296	0.400607
	H52	H	0.594762	0.418517	0.109498
	H53	H	0.605895	0.585593	0.873276
	H54	H	0.410292	0.600415	0.115887
	H55	H	0.423327	0.398669	0.875873
	H56	H	0.119982	0.592851	0.409689
	H57	H	0.886891	0.590539	0.589008
	H58	H	0.116116	0.416022	0.573797
	H59	H	0.885105	0.409195	0.396170
	H60	H	0.125621	0.410554	0.599951
	H61	H	0.884128	0.598987	0.593999
	H62	H	0.120188	0.584838	0.401324
	H63	H	0.882759	0.395618	0.399161
	H64	H	0.408009	0.591928	0.113505
	H65	H	0.588572	0.585551	0.879441
	H66	H	0.585984	0.403477	0.112665
	H67	H	0.404413	0.396933	0.870091
	H68	H	0.603194	0.119283	0.393945
	H69	H	0.605525	0.882624	0.575750
	H70	H	0.403090	0.117311	0.589419
	H71	H	0.408999	0.880532	0.393046
	H72	H	0.908435	0.616967	0.093758
	H73	H	0.102857	0.382283	0.082086
	H74	H	0.104233	0.616697	0.906377
	H75	H	0.915130	0.384201	0.898401
	H76	H	0.091219	0.895141	0.616768
	H77	H	0.094968	0.083649	0.378445
	H78	H	0.907183	0.096995	0.615645
	H79	H	0.904002	0.914639	0.374768
	H80	H	0.622623	0.088278	0.895081
	H81	H	0.390015	0.087832	0.083270
	H82	H	0.619248	0.912950	0.083319
	H83	H	0.383528	0.896911	0.900905
	H84	H	0.622789	0.905358	0.087390
	H85	H	0.383133	0.095229	0.099508
	H86	H	0.623320	0.100221	0.901336
	H87	H	0.388090	0.907599	0.906208
	H88	H	0.910332	0.088136	0.612698
	H89	H	0.091396	0.094848	0.375090
	H90	H	0.107779	0.910694	0.617508
	H91	H	0.928041	0.905646	0.379422
	H92	H	0.100623	0.617532	0.897926
	H93	H	0.098992	0.380742	0.088396
	H94	H	0.909605	0.614663	0.089099
	H95	H	0.908221	0.383262	0.906176
	H96	H	0.410213	0.117153	0.592809
	H97	H	0.600480	0.878536	0.593684
	H98	H	0.590282	0.113158	0.403593
	H99	H	0.412442	0.882967	0.400551
	H100	H	0.602597	0.404626	0.117854
	H101	H	0.595491	0.600622	0.871633
	H102	H	0.415411	0.594924	0.111642
	H103	H	0.410483	0.415372	0.876828
	H104	H	0.124071	0.596094	0.398619
	H105	H	0.885714	0.599078	0.585259
	H106	H	0.125878	0.389742	0.580137
	H107	H	0.888211	0.404017	0.409486
	H108	H	0.905071	0.615822	0.090052
	H109	H	0.095399	0.383788	0.082939
	H110	H	0.095614	0.614598	0.904515
	H111	H	0.905874	0.380303	0.896430
	H112	H	0.087681	0.916537	0.608967
	H113	H	0.102753	0.091053	0.373275
	H114	H	0.916660	0.095583	0.612229
	H115	H	0.909055	0.890395	0.369486
	H116	H	0.619165	0.090097	0.908285
	H117	H	0.384997	0.105445	0.084339
	H118	H	0.620173	0.905845	0.076959
	H119	H	0.384448	0.907364	0.894057
	C120	C	0.380450	0.008132	0.616392
	C121	C	0.625879	0.990634	0.614583
	C122	C	0.627469	0.008108	0.371131
	C123	C	0.381537	0.990504	0.371919
	C124	C	0.624566	0.378185	0.003123
	C125	C	0.624641	0.621088	0.984931
	C126	C	0.383118	0.621679	0.003296
	C127	C	0.383382	0.377684	0.984792
	C128	C	0.012634	0.619291	0.374857
	C129	C	0.994855	0.623220	0.617702
	C130	C	0.013363	0.378953	0.614110
	C131	C	0.994761	0.375085	0.371805
	C132	C	0.880121	0.507492	0.117600
	C133	C	0.126407	0.490262	0.115653
	C134	C	0.127769	0.507807	0.871819
	C135	C	0.882070	0.490968	0.873309
	C136	C	0.125009	0.877567	0.504068
	C137	C	0.124383	0.120084	0.485560
	C138	C	0.883227	0.120432	0.503147
	C139	C	0.883998	0.877757	0.484985
	C140	C	0.512734	0.120389	0.873454
	C141	C	0.495130	0.123485	0.116971
	C142	C	0.512055	0.879985	0.113099
	C143	C	0.494381	0.876374	0.870469
	C144	C	0.384830	0.884113	0.668491
	C145	C	0.620831	0.114451	0.670431
	C146	C	0.623420	0.885199	0.313938
	C147	C	0.386792	0.115354	0.321676
	C148	C	0.680024	0.379407	0.877524
	C149	C	0.677574	0.620375	0.111079
	C150	C	0.329729	0.615799	0.877127
	C151	C	0.328162	0.382435	0.110716
	C152	C	0.889320	0.674927	0.376940
	C153	C	0.118174	0.678453	0.616458
	C154	C	0.889637	0.324262	0.614980
	C155	C	0.118296	0.319774	0.372060
	C156	C	0.888428	0.384579	0.668682
	C157	C	0.119121	0.618984	0.671085
	C158	C	0.888086	0.614622	0.322494
	C159	C	0.119122	0.378939	0.316499
	C160	C	0.385853	0.673374	0.877094
	C161	C	0.622458	0.679314	0.109757
	C162	C	0.624605	0.320866	0.877817
	C163	C	0.384603	0.325331	0.110724
	C164	C	0.682528	0.885101	0.370348
	C165	C	0.681091	0.113343	0.615102
	C166	C	0.325748	0.884708	0.612851
	C167	C	0.326045	0.113557	0.376090
	C168	C	0.884463	0.383500	0.169311
	C169	C	0.120857	0.613852	0.171934
	C170	C	0.123225	0.384405	0.815617
	C171	C	0.887014	0.614888	0.821467
	C172	C	0.178982	0.879221	0.377804
	C173	C	0.177444	0.118490	0.611578
	C174	C	0.829367	0.116116	0.377700
	C175	C	0.827748	0.882337	0.610280
	C176	C	0.389143	0.175561	0.875795
	C177	C	0.618549	0.178946	0.115785
	C178	C	0.388663	0.824790	0.113828
	C179	C	0.617942	0.820713	0.869706
	C180	C	0.387809	0.884726	0.168658
	C181	C	0.619627	0.119618	0.170533
	C182	C	0.387984	0.115894	0.820917
	C183	C	0.618862	0.880094	0.814803
	C184	C	0.885106	0.174070	0.378234
	C185	C	0.121458	0.176819	0.611321
	C186	C	0.124392	0.820500	0.379056
	C187	C	0.884956	0.826094	0.611016
	C188	C	0.182699	0.384796	0.871600
	C189	C	0.180584	0.613673	0.116103
	C190	C	0.824362	0.384736	0.114057
	C191	C	0.826659	0.613740	0.876653
	C192	C	0.401469	0.094140	0.595552
	C193	C	0.604487	0.904607	0.590754
	C194	C	0.605971	0.094160	0.395410
	C195	C	0.402556	0.904252	0.391937
	C196	C	0.601188	0.401915	0.090875
	C197	C	0.603201	0.597565	0.897534
	C198	C	0.404710	0.601821	0.090948
	C199	C	0.406026	0.397825	0.897056
	C200	C	0.099110	0.597641	0.396696
	C201	C	0.908038	0.602361	0.596073
	C202	C	0.100160	0.399449	0.591391
	C203	C	0.907843	0.396561	0.394776
	C204	C	0.901554	0.593596	0.097172
	C205	C	0.105351	0.404477	0.091498
	C206	C	0.106571	0.593892	0.895749
	C207	C	0.903531	0.404857	0.894106
	C208	C	0.102230	0.900634	0.591860
	C209	C	0.102811	0.096879	0.398028
	C210	C	0.904960	0.099806	0.590902
	C211	C	0.906944	0.897587	0.397022
	C212	C	0.599162	0.099114	0.895156
	C213	C	0.408553	0.102521	0.095344
	C214	C	0.598420	0.901653	0.089395
	C215	C	0.407828	0.897642	0.893514
	Zn216	Zn	0.503040	-0.000940	0.743908
	Zn217	Zn	0.503824	0.000846	0.243263
	Zn218	Zn	0.751628	0.499472	-0.005401
	Zn219	Zn	0.256474	0.499408	-0.005816
	Zn220	Zn	0.004048	0.750099	0.495503
	Zn221	Zn	0.003713	0.248772	0.494691
	Zn222	Zn	0.004178	0.499632	0.743578
	Zn223	Zn	0.003822	0.497864	0.245049
	Zn224	Zn	0.503490	0.749603	-0.007198
	Zn225	Zn	0.504237	0.250225	-0.005390
	Zn226	Zn	0.756369	-0.001362	0.493184
	Zn227	Zn	0.252158	-0.001512	0.494228
	N228	N	0.418209	0.961714	0.671149
	N229	N	0.587107	0.037039	0.670165
	N230	N	0.590077	0.962704	0.314160
	N231	N	0.420617	0.038018	0.318865
	N232	N	0.679901	0.414458	0.956373
	N233	N	0.679087	0.584823	0.032638
	N234	N	0.327790	0.584293	0.956534
	N235	N	0.327475	0.414443	0.031599
	N236	N	0.967808	0.677916	0.408882
	N237	N	0.039659	0.681297	0.584193
	N238	N	0.968062	0.320694	0.581860
	N239	N	0.039873	0.317287	0.405642
	N240	N	0.966443	0.417852	0.668580
	N241	N	0.041528	0.585356	0.672086
	N242	N	0.965802	0.580551	0.321080
	N243	N	0.041204	0.412579	0.316173
	N244	N	0.418216	0.677401	0.956313
	N245	N	0.590378	0.680176	0.030158
	N246	N	0.590942	0.319999	0.957160
	N247	N	0.418063	0.321991	0.031426
	N248	N	0.685145	0.962637	0.405171
	N249	N	0.684250	0.035389	0.581136
	N250	N	0.322645	0.962677	0.581460
	N251	N	0.322260	0.035017	0.406239
	N252	N	0.918425	0.460750	0.171760
	N253	N	0.087788	0.536202	0.171830
	N254	N	0.089686	0.461916	0.815677
	N255	N	0.920714	0.537464	0.819133
	N256	N	0.179224	0.914217	0.456555
	N257	N	0.179434	0.083951	0.532545
	N258	N	0.828103	0.083439	0.456372
	N259	N	0.827336	0.913956	0.530911
	N260	N	0.467755	0.178570	0.907822
	N261	N	0.540280	0.181791	0.083430
	N262	N	0.466935	0.821990	0.079855
	N263	N	0.539639	0.818092	0.903431
	N264	N	0.465450	0.918511	0.168245
	N265	N	0.541812	0.085819	0.171452
	N266	N	0.465715	0.082197	0.819380
	N267	N	0.541109	0.913988	0.815017
	N268	N	0.917921	0.176804	0.457556
	N269	N	0.089151	0.177937	0.531872
	N270	N	0.091639	0.819086	0.458746
	N271	N	0.919325	0.823056	0.532073
	N272	N	0.185961	0.462670	0.905618
	N273	N	0.184208	0.535859	0.081713
	N274	N	0.821370	0.462781	0.082711
	N275	N	0.823600	0.535715	0.908059
	O276	O	0.959692	0.974197	0.056056
	H277	H	0.953975	0.975989	0.068899
	H278	H	0.953816	0.974328	0.048603
	O279	O	0.089340	-0.000055	1.005511
	H280	H	0.092959	0.003450	1.006494
	H281	H	0.085454	-0.005379	1.010141
	O282	O	-0.004618	0.002825	0.138450
	H283	H	0.004308	0.003889	0.150046
	H284	H	-0.006496	-0.000087	0.136095
	O285	O	0.567942	0.548312	0.522819
	H286	H	0.575001	0.552404	0.527159
	H287	H	0.564696	0.554186	0.514316
	O288	O	0.029448	-0.041409	0.029928
	H289	H	0.030209	-0.034305	0.038576
	H290	H	0.021250	-0.034036	0.031078
	O291	O	0.032416	1.092353	-0.022905
	H292	H	0.034580	1.097182	-0.023473
	H293	H	0.031993	1.086819	-0.045775
	O294	O	-0.026656	0.913202	0.034129
	H295	H	-0.033723	0.914158	0.036844
	H296	H	-0.027986	0.919610	0.025741
	O297	O	0.473250	0.495203	0.432776
	H298	H	0.465358	0.494484	0.431594
	H299	H	0.483850	0.493544	0.425088
	O300	O	0.513659	0.423791	0.501097
	H301	H	0.513977	0.417069	0.512913
	H302	H	0.513266	0.421285	0.505706
	O303	O	0.966853	0.003354	0.980166
	H304	H	0.969569	-0.001557	0.978196
	H305	H	0.967036	0.007018	0.982417
	O306	O	0.015547	0.990605	0.945273
	H307	H	0.012904	0.991659	0.959769
	H308	H	0.021475	0.991281	0.941508
	O309	O	0.014641	1.041824	0.986075
	H310	H	0.020970	1.031058	0.988992
	H311	H	0.007836	1.042514	0.981015
	O312	O	-0.032752	-0.049389	0.924892
	H313	H	-0.027111	-0.038291	0.928001
	H314	H	-0.032898	-0.052121	0.914388
	O315	O	0.483917	0.408640	0.503446
	H316	H	0.485149	0.412903	0.503376
	H317	H	0.482469	0.404400	0.503407
	O318	O	-0.033163	-0.021372	1.014224
	H319	H	-0.032004	-0.020192	1.009926
	H320	H	-0.017749	-0.026809	1.014332
	O321	O	0.519655	0.517170	0.605388
	H322	H	0.513458	0.521871	0.613472
	H323	H	0.515346	0.520481	0.604651
	O324	O	0.966539	-0.056682	0.972354
	H325	H	0.968703	-0.064118	0.980414
	H326	H	0.968421	-0.060141	0.969777
	O327	O	0.961252	1.115920	0.978204
	H328	H	0.956155	1.114064	0.976013
	H329	H	0.960795	1.111852	0.986225
	O330	O	0.490077	0.481779	0.451454
	H331	H	0.492564	0.472610	0.448291
	H332	H	0.505969	0.483863	0.447871
	O333	O	0.475699	0.440287	0.478734
	H334	H	0.470625	0.435826	0.480416
	H335	H	0.477144	0.434457	0.482390
	O336	O	0.474566	0.480261	0.530114
	H337	H	0.470902	0.475454	0.535395
	H338	H	0.472490	0.481428	0.530265
	O339	O	0.447038	0.482256	0.509337
	H340	H	0.448838	0.485015	0.502921
	H341	H	0.438457	0.487399	0.512225
	O342	O	0.501433	0.511232	0.448786
	H343	H	0.507208	0.504954	0.445542
	H344	H	0.503004	0.510230	0.442718
	O345	O	0.553567	0.500235	0.452527
	H346	H	0.545139	0.499270	0.454638
	H347	H	0.557731	0.497346	0.447608
