data_Molecule from HDF5

_cell_length_a		16.283652
_cell_length_b		16.136345
_cell_length_c		16.263915
_cell_angle_alpha	89.863036
_cell_angle_beta	89.999070
_cell_angle_gamma	89.926593
_symmetry_space_group_name_H-M	'P 1'
_symmetry_Int_Tables_number		1

loop_
	_symmetry_equiv_pos_as_xyz
	x,y,z

loop_
	_atom_site_label
	_atom_site_type_symbol
	_atom_site_fract_x
	_atom_site_fract_y
	_atom_site_fract_z
	H0	H	0.400083	0.835404	0.708929
	H1	H	0.595528	0.165474	0.707882
	H2	H	0.595256	0.835330	0.283451
	H3	H	0.397850	0.165357	0.280022
	H4	H	0.713500	0.401660	0.831670
	H5	H	0.713048	0.597934	0.158859
	H6	H	0.284580	0.599634	0.830740
	H7	H	0.283301	0.399655	0.159357
	H8	H	0.833063	0.714559	0.396747
	H9	H	0.162639	0.711798	0.589583
	H10	H	0.833293	0.288687	0.592239
	H11	H	0.162088	0.287480	0.398601
	H12	H	0.834663	0.401893	0.710160
	H13	H	0.162122	0.599577	0.708685
	H14	H	0.834129	0.599601	0.280186
	H15	H	0.161839	0.401936	0.280943
	H16	H	0.402436	0.713238	0.830138
	H17	H	0.594839	0.711824	0.159447
	H18	H	0.595356	0.287480	0.830445
	H19	H	0.402071	0.287038	0.160410
	H20	H	0.712330	0.836066	0.396636
	H21	H	0.710592	0.165883	0.592677
	H22	H	0.285417	0.835171	0.593456
	H23	H	0.284829	0.166090	0.397634
	H24	H	0.901942	0.334938	0.207969
	H25	H	0.096290	0.666130	0.208092
	H26	H	0.096581	0.335894	0.782030
	H27	H	0.901069	0.665681	0.781468
	H28	H	0.213850	0.901150	0.331557
	H29	H	0.212730	0.098093	0.659171
	H30	H	0.782294	0.100991	0.332124
	H31	H	0.784192	0.901375	0.659523
	H32	H	0.334724	0.214417	0.897571
	H33	H	0.662992	0.211833	0.092715
	H34	H	0.333981	0.787080	0.092564
	H35	H	0.663427	0.788635	0.899827
	H36	H	0.334363	0.902461	0.209670
	H37	H	0.661634	0.099334	0.210119
	H38	H	0.334471	0.099000	0.781014
	H39	H	0.662080	0.902011	0.781953
	H40	H	0.901524	0.213199	0.330835
	H41	H	0.094719	0.213026	0.659461
	H42	H	0.092994	0.789188	0.329836
	H43	H	0.901972	0.787146	0.659782
	H44	H	0.211861	0.334857	0.897674
	H45	H	0.212035	0.665685	0.093395
	H46	H	0.785578	0.334920	0.093365
	H47	H	0.784951	0.665558	0.896835
	H48	H	0.401493	0.118499	0.585496
	H49	H	0.600324	0.877408	0.596228
	H50	H	0.598833	0.118783	0.410797
	H51	H	0.403865	0.882683	0.404155
	H52	H	0.590050	0.417797	0.108037
	H53	H	0.581323	0.594338	0.880883
	H54	H	0.403221	0.593827	0.112955
	H55	H	0.410389	0.415221	0.882702
	H56	H	0.116179	0.608846	0.408723
	H57	H	0.879787	0.598614	0.590564
	H58	H	0.116102	0.401932	0.587140
	H59	H	0.879094	0.402692	0.400491
	H60	H	0.111718	0.410963	0.584018
	H61	H	0.881998	0.592557	0.585614
	H62	H	0.107967	0.580851	0.409277
	H63	H	0.882713	0.410079	0.404723
	H64	H	0.404366	0.590913	0.111560
	H65	H	0.597929	0.604007	0.873007
	H66	H	0.584383	0.397164	0.112401
	H67	H	0.409630	0.399563	0.877175
	H68	H	0.592517	0.122420	0.391641
	H69	H	0.580521	0.884081	0.594018
	H70	H	0.403080	0.120653	0.592783
	H71	H	0.403331	0.881872	0.400367
	H72	H	0.909145	0.617995	0.090809
	H73	H	0.086017	0.382116	0.095087
	H74	H	0.086107	0.616619	0.903225
	H75	H	0.910956	0.382223	0.897112
	H76	H	0.091226	0.905848	0.612671
	H77	H	0.092443	0.099562	0.376061
	H78	H	0.894052	0.097284	0.616094
	H79	H	0.910331	0.900905	0.378227
	H80	H	0.618658	0.101382	0.896544
	H81	H	0.378958	0.102252	0.086599
	H82	H	0.614844	0.900953	0.083423
	H83	H	0.383918	0.916191	0.898530
	H84	H	0.613223	0.915195	0.090536
	H85	H	0.384992	0.087550	0.081765
	H86	H	0.612870	0.093382	0.910174
	H87	H	0.377359	0.900060	0.895288
	H88	H	0.904401	0.083000	0.609374
	H89	H	0.096895	0.089337	0.377361
	H90	H	0.093295	0.906376	0.612104
	H91	H	0.894839	0.907458	0.374778
	H92	H	0.098508	0.618973	0.906460
	H93	H	0.089677	0.386372	0.080800
	H94	H	0.903460	0.617664	0.083113
	H95	H	0.907201	0.384621	0.909496
	H96	H	0.408689	0.116906	0.587986
	H97	H	0.593810	0.884958	0.577691
	H98	H	0.579524	0.114596	0.405188
	H99	H	0.407116	0.882896	0.401604
	H100	H	0.604784	0.403846	0.116692
	H101	H	0.598859	0.584255	0.878641
	H102	H	0.406564	0.592889	0.111299
	H103	H	0.395361	0.409244	0.876573
	H104	H	0.118786	0.592460	0.385227
	H105	H	0.880367	0.591187	0.593290
	H106	H	0.115460	0.410070	0.594147
	H107	H	0.880322	0.410207	0.395724
	H108	H	0.900395	0.620970	0.091519
	H109	H	0.099458	0.379169	0.090209
	H110	H	0.094299	0.621178	0.894290
	H111	H	0.898443	0.379464	0.900581
	H112	H	0.092457	0.907780	0.611985
	H113	H	0.086435	0.091542	0.380193
	H114	H	0.912065	0.100618	0.612258
	H115	H	0.906914	0.917406	0.381875
	H116	H	0.614823	0.085428	0.896388
	H117	H	0.380071	0.089182	0.097800
	H118	H	0.618447	0.902747	0.098213
	H119	H	0.383355	0.904197	0.912011
	C120	C	0.376536	0.009371	0.617058
	C121	C	0.619475	0.991496	0.617246
	C122	C	0.618916	0.009258	0.374467
	C123	C	0.376221	0.991929	0.373908
	C124	C	0.620636	0.378352	0.003626
	C125	C	0.620766	0.621749	0.986171
	C126	C	0.376831	0.621446	0.003301
	C127	C	0.376833	0.378823	0.987452
	C128	C	0.005862	0.622572	0.372967
	C129	C	0.989428	0.622071	0.616979
	C130	C	0.006293	0.379016	0.617174
	C131	C	0.989231	0.378942	0.372932
	C132	C	0.877095	0.509310	0.116342
	C133	C	0.119777	0.492132	0.116948
	C134	C	0.120865	0.509348	0.873448
	C135	C	0.877748	0.491523	0.873994
	C136	C	0.120061	0.878693	0.503361
	C137	C	0.119597	0.121680	0.486773
	C138	C	0.875731	0.122194	0.504148
	C139	C	0.876452	0.879611	0.486733
	C140	C	0.506966	0.121838	0.873102
	C141	C	0.489831	0.121450	0.117112
	C142	C	0.506683	0.878296	0.118270
	C143	C	0.490125	0.878951	0.874118
	C144	C	0.379729	0.884555	0.671377
	C145	C	0.616471	0.116202	0.671005
	C146	C	0.616086	0.884839	0.320221
	C147	C	0.378471	0.116344	0.318805
	C148	C	0.675056	0.381115	0.880285
	C149	C	0.674950	0.618090	0.110097
	C150	C	0.322578	0.619433	0.879631
	C151	C	0.321529	0.380393	0.110563
	C152	C	0.882156	0.676784	0.376288
	C153	C	0.113271	0.675492	0.611814
	C154	C	0.882567	0.325245	0.613637
	C155	C	0.113043	0.324728	0.377196
	C156	C	0.883244	0.382033	0.671741
	C157	C	0.113202	0.619326	0.670674
	C158	C	0.882676	0.619899	0.318164
	C159	C	0.113057	0.381756	0.318957
	C160	C	0.380965	0.676230	0.879430
	C161	C	0.616472	0.674676	0.110380
	C162	C	0.616668	0.324246	0.879781
	C163	C	0.380702	0.324076	0.111181
	C164	C	0.673904	0.885018	0.376994
	C165	C	0.673665	0.116316	0.613727
	C166	C	0.322718	0.884466	0.614031
	C167	C	0.321853	0.116546	0.376752
	C168	C	0.880697	0.384272	0.170865
	C169	C	0.116644	0.616751	0.170909
	C170	C	0.117216	0.384875	0.819577
	C171	C	0.880833	0.616497	0.819528
	C172	C	0.174941	0.881499	0.380018
	C173	C	0.174401	0.118573	0.610373
	C174	C	0.820488	0.120863	0.380830
	C175	C	0.821969	0.881399	0.610531
	C176	C	0.383311	0.176366	0.876805
	C177	C	0.613666	0.175162	0.113647
	C178	C	0.383025	0.824200	0.114016
	C179	C	0.614199	0.825679	0.878622
	C180	C	0.383147	0.881704	0.171935
	C181	C	0.612941	0.119191	0.172274
	C182	C	0.383313	0.119002	0.819046
	C183	C	0.613365	0.881699	0.819671
	C184	C	0.879840	0.176470	0.380123
	C185	C	0.116223	0.175876	0.610414
	C186	C	0.115464	0.825475	0.379332
	C187	C	0.880418	0.824609	0.610672
	C188	C	0.174521	0.384502	0.876875
	C189	C	0.174346	0.616459	0.113917
	C190	C	0.823283	0.384167	0.113870
	C191	C	0.822858	0.616308	0.876441
	C192	C	0.398062	0.096123	0.595299
	C193	C	0.597902	0.904628	0.595702
	C194	C	0.596835	0.096299	0.396076
	C195	C	0.398287	0.904866	0.395753
	C196	C	0.599270	0.399865	0.090094
	C197	C	0.599249	0.600572	0.899857
	C198	C	0.398264	0.599129	0.089648
	C199	C	0.398703	0.401302	0.901091
	C200	C	0.092200	0.600618	0.394694
	C201	C	0.903020	0.600562	0.595938
	C202	C	0.092281	0.400960	0.594852
	C203	C	0.903082	0.400953	0.394004
	C204	C	0.898136	0.596099	0.094840
	C205	C	0.098055	0.405024	0.095157
	C206	C	0.099319	0.596617	0.894886
	C207	C	0.899200	0.404717	0.895824
	C208	C	0.098824	0.900356	0.589914
	C209	C	0.098269	0.099921	0.400292
	C210	C	0.897170	0.100129	0.590318
	C211	C	0.897684	0.901992	0.400678
	C212	C	0.593166	0.099991	0.894602
	C213	C	0.403472	0.099589	0.095130
	C214	C	0.593202	0.899667	0.096975
	C215	C	0.403766	0.900400	0.895668
	Zn216	Zn	0.498151	0.000042	0.745019
	Zn217	Zn	0.497893	0.000897	0.246239
	Zn218	Zn	0.749278	0.499910	-0.005244
	Zn219	Zn	0.247786	0.500254	-0.004802
	Zn220	Zn	-0.002590	0.750346	0.495191
	Zn221	Zn	-0.002537	0.250629	0.495297
	Zn222	Zn	-0.001440	0.500753	0.745623
	Zn223	Zn	-0.002083	0.500780	0.244275
	Zn224	Zn	0.498687	0.750160	-0.004439
	Zn225	Zn	0.498830	0.249808	-0.004438
	Zn226	Zn	0.746961	0.000607	0.495842
	Zn227	Zn	0.248977	0.000245	0.495312
	N228	N	0.412571	0.963006	0.673403
	N229	N	0.583461	0.037810	0.673188
	N230	N	0.582637	0.963097	0.318618
	N231	N	0.411420	0.037669	0.316714
	N232	N	0.677410	0.413829	0.958159
	N233	N	0.677608	0.585755	0.031826
	N234	N	0.319811	0.586226	0.957581
	N235	N	0.319225	0.413707	0.032491
	N236	N	0.959750	0.678441	0.409743
	N237	N	0.035394	0.677065	0.578875
	N238	N	0.960142	0.323441	0.579973
	N239	N	0.035289	0.322977	0.410186
	N240	N	0.961226	0.414525	0.674112
	N241	N	0.035180	0.587015	0.673963
	N242	N	0.960585	0.586795	0.316127
	N243	N	0.035215	0.414693	0.316139
	N244	N	0.414241	0.677447	0.957274
	N245	N	0.583378	0.677065	0.032781
	N246	N	0.583409	0.322318	0.957732
	N247	N	0.414391	0.322913	0.033595
	N248	N	0.675674	0.963457	0.409911
	N249	N	0.675481	0.037852	0.580875
	N250	N	0.320530	0.962937	0.580941
	N251	N	0.320628	0.038209	0.410212
	N252	N	0.913388	0.463003	0.172679
	N253	N	0.083686	0.538419	0.173037
	N254	N	0.084361	0.463510	0.817365
	N255	N	0.914309	0.538130	0.818113
	N256	N	0.177838	0.913672	0.458183
	N257	N	0.176634	0.085653	0.532360
	N258	N	0.818042	0.087745	0.458757
	N259	N	0.819476	0.914915	0.532625
	N260	N	0.461089	0.178191	0.909856
	N261	N	0.536070	0.176554	0.079927
	N262	N	0.460845	0.822162	0.081205
	N263	N	0.536544	0.824056	0.911977
	N264	N	0.461106	0.914291	0.174984
	N265	N	0.534917	0.086420	0.174390
	N266	N	0.461224	0.086011	0.816598
	N267	N	0.535269	0.914018	0.816761
	N268	N	0.913875	0.177107	0.457606
	N269	N	0.082763	0.177639	0.532701
	N270	N	0.081987	0.823630	0.457109
	N271	N	0.913549	0.823271	0.532878
	N272	N	0.176515	0.462985	0.909748
	N273	N	0.176173	0.537903	0.080894
	N274	N	0.820900	0.462606	0.080747
	N275	N	0.820815	0.537719	0.909500
	O276	O	0.442026	-0.507937	1.466297
	H277	H	0.444343	-0.497099	1.466099
	H278	H	0.442279	-0.510737	1.459800
	O279	O	0.449588	0.460234	0.440892
	H280	H	0.447746	0.459418	0.445808
	H281	H	0.446262	0.468246	0.441568
	O282	O	1.438179	1.485424	0.485223
	H283	H	1.426727	1.492436	0.492589
	H284	H	1.445302	1.482114	0.490834
	O285	O	0.451399	0.452160	0.466542
	H286	H	0.450197	0.449683	0.452522
	H287	H	0.451885	0.441775	0.465958
