data_Molecule from HDF5

_cell_length_a		16.165951
_cell_length_b		16.316153
_cell_length_c		16.142627
_cell_angle_alpha	89.995994
_cell_angle_beta	89.597883
_cell_angle_gamma	89.902112
_symmetry_space_group_name_H-M	'P 1'
_symmetry_Int_Tables_number		1

loop_
	_symmetry_equiv_pos_as_xyz
	x,y,z

loop_
	_atom_site_label
	_atom_site_type_symbol
	_atom_site_fract_x
	_atom_site_fract_y
	_atom_site_fract_z
	H0	H	0.404900	0.841758	0.709838
	H1	H	0.600500	0.168694	0.707483
	H2	H	0.603191	0.840929	0.278266
	H3	H	0.406024	0.168688	0.280621
	H4	H	0.718585	0.405501	0.829528
	H5	H	0.715375	0.602683	0.158989
	H6	H	0.290294	0.603109	0.829062
	H7	H	0.290422	0.406618	0.159591
	H8	H	0.840404	0.720327	0.393629
	H9	H	0.168169	0.718841	0.593794
	H10	H	0.839491	0.289002	0.595585
	H11	H	0.168248	0.286842	0.392291
	H12	H	0.838393	0.407687	0.707768
	H13	H	0.169234	0.600450	0.705497
	H14	H	0.839165	0.601364	0.281861
	H15	H	0.169341	0.404542	0.279154
	H16	H	0.403807	0.720439	0.829143
	H17	H	0.603162	0.720975	0.157344
	H18	H	0.604902	0.290208	0.829534
	H19	H	0.401900	0.288977	0.157457
	H20	H	0.720062	0.840738	0.392667
	H21	H	0.717318	0.167809	0.592810
	H22	H	0.289943	0.840603	0.594038
	H23	H	0.288137	0.167209	0.396211
	H24	H	0.905754	0.339837	0.209360
	H25	H	0.103481	0.666438	0.209122
	H26	H	0.101585	0.339456	0.780630
	H27	H	0.904858	0.666744	0.780345
	H28	H	0.219783	0.905431	0.330172
	H29	H	0.214084	0.099958	0.659946
	H30	H	0.792259	0.101064	0.328227
	H31	H	0.789832	0.907433	0.659578
	H32	H	0.339954	0.221131	0.893644
	H33	H	0.667674	0.220669	0.091335
	H34	H	0.339242	0.790017	0.096497
	H35	H	0.667597	0.789240	0.891136
	H36	H	0.338702	0.908734	0.208415
	H37	H	0.669301	0.103109	0.205240
	H38	H	0.338098	0.101846	0.783485
	H39	H	0.668603	0.908067	0.779417
	H40	H	0.904058	0.219430	0.329461
	H41	H	0.101594	0.217479	0.658637
	H42	H	0.106870	0.788767	0.330000
	H43	H	0.902339	0.789225	0.658557
	H44	H	0.221105	0.341544	0.893679
	H45	H	0.217523	0.667235	0.092432
	H46	H	0.787040	0.340248	0.095667
	H47	H	0.789158	0.667449	0.896187
	H48	H	0.414708	0.118677	0.583651
	H49	H	0.604315	0.886628	0.582246
	H50	H	0.604384	0.123815	0.395187
	H51	H	0.404324	0.886985	0.404245
	H52	H	0.604838	0.413598	0.114566
	H53	H	0.600854	0.602542	0.872996
	H54	H	0.410945	0.603610	0.112950
	H55	H	0.421173	0.413554	0.878396
	H56	H	0.121515	0.602180	0.409284
	H57	H	0.882823	0.598909	0.597024
	H58	H	0.122041	0.410913	0.588537
	H59	H	0.884328	0.413408	0.392839
	H60	H	0.122360	0.406416	0.586049
	H61	H	0.886045	0.604620	0.581345
	H62	H	0.118168	0.587221	0.402783
	H63	H	0.885341	0.400524	0.406990
	H64	H	0.405449	0.595029	0.111739
	H65	H	0.599086	0.591236	0.877236
	H66	H	0.587491	0.419730	0.108060
	H67	H	0.409873	0.405501	0.872855
	H68	H	0.590679	0.119577	0.396266
	H69	H	0.595419	0.886132	0.595338
	H70	H	0.400984	0.122602	0.585151
	H71	H	0.412500	0.886165	0.393165
	H72	H	0.917850	0.620580	0.098495
	H73	H	0.103890	0.386495	0.081615
	H74	H	0.102093	0.622440	0.898467
	H75	H	0.906753	0.386804	0.906757
	H76	H	0.091867	0.921855	0.608391
	H77	H	0.098738	0.095968	0.375261
	H78	H	0.909379	0.094623	0.611302
	H79	H	0.918848	0.906956	0.376661
	H80	H	0.618952	0.096713	0.908473
	H81	H	0.389990	0.096948	0.074187
	H82	H	0.619487	0.911289	0.077654
	H83	H	0.388257	0.913660	0.909776
	H84	H	0.619971	0.917614	0.088635
	H85	H	0.386999	0.087741	0.094895
	H86	H	0.621306	0.092537	0.894425
	H87	H	0.385115	0.915559	0.896900
	H88	H	0.912414	0.099196	0.611528
	H89	H	0.096264	0.094490	0.377058
	H90	H	0.086272	0.900619	0.612905
	H91	H	0.907205	0.908465	0.373851
	H92	H	0.092145	0.619540	0.896990
	H93	H	0.096459	0.384409	0.094133
	H94	H	0.913657	0.614401	0.075609
	H95	H	0.907443	0.384781	0.896201
	H96	H	0.410031	0.122959	0.596775
	H97	H	0.589549	0.891336	0.581841
	H98	H	0.600003	0.119362	0.407726
	H99	H	0.417551	0.891301	0.405112
	H100	H	0.590223	0.401534	0.113565
	H101	H	0.590017	0.599251	0.877578
	H102	H	0.415613	0.595165	0.109060
	H103	H	0.408089	0.419240	0.877109
	H104	H	0.124921	0.599610	0.393148
	H105	H	0.889610	0.588929	0.584893
	H106	H	0.120897	0.410468	0.582730
	H107	H	0.891624	0.418121	0.409810
	H108	H	0.895705	0.624179	0.089987
	H109	H	0.090230	0.390534	0.082030
	H110	H	0.096742	0.618840	0.906266
	H111	H	0.915910	0.388787	0.901840
	H112	H	0.107449	0.907084	0.617749
	H113	H	0.095295	0.098038	0.376159
	H114	H	0.907591	0.098989	0.613406
	H115	H	0.913550	0.917318	0.378733
	H116	H	0.625213	0.106542	0.898468
	H117	H	0.382022	0.109774	0.091237
	H118	H	0.623998	0.905738	0.087828
	H119	H	0.383771	0.904381	0.901805
	C120	C	0.380807	0.013260	0.617109
	C121	C	0.624452	0.996495	0.614990
	C122	C	0.627201	0.012811	0.370457
	C123	C	0.382618	0.996110	0.372954
	C124	C	0.624373	0.383127	0.003017
	C125	C	0.625153	0.626366	0.984832
	C126	C	0.382178	0.626637	0.002248
	C127	C	0.382780	0.383671	0.985170
	C128	C	0.012961	0.625388	0.372773
	C129	C	0.995259	0.625753	0.616292
	C130	C	0.012586	0.381775	0.615447
	C131	C	0.995874	0.381812	0.373111
	C132	C	0.881012	0.511793	0.116714
	C133	C	0.125318	0.494991	0.114711
	C134	C	0.126177	0.512693	0.871721
	C135	C	0.881764	0.494943	0.873109
	C136	C	0.125316	0.881823	0.503789
	C137	C	0.124700	0.124542	0.485481
	C138	C	0.882228	0.125616	0.502552
	C139	C	0.882959	0.882760	0.485289
	C140	C	0.512548	0.126886	0.872678
	C141	C	0.495031	0.126812	0.114963
	C142	C	0.512393	0.883291	0.115225
	C143	C	0.494857	0.883245	0.872779
	C144	C	0.383926	0.890337	0.672409
	C145	C	0.621037	0.119615	0.669571
	C146	C	0.623960	0.889763	0.315759
	C147	C	0.385032	0.119576	0.318076
	C148	C	0.680741	0.385231	0.878912
	C149	C	0.678657	0.623411	0.109402
	C150	C	0.327506	0.624173	0.878332
	C151	C	0.327590	0.386201	0.109711
	C152	C	0.889382	0.681233	0.374344
	C153	C	0.118948	0.680898	0.613855
	C154	C	0.888542	0.327202	0.615009
	C155	C	0.119399	0.325560	0.373412
	C156	C	0.888069	0.386291	0.670709
	C157	C	0.119596	0.621837	0.669359
	C158	C	0.888802	0.622248	0.318505
	C159	C	0.120037	0.384045	0.317112
	C160	C	0.384215	0.682229	0.878403
	C161	C	0.622528	0.682041	0.108704
	C162	C	0.624085	0.327920	0.878931
	C163	C	0.383105	0.327571	0.108619
	C164	C	0.682485	0.889847	0.372507
	C165	C	0.679278	0.119117	0.612526
	C166	C	0.326764	0.889775	0.614741
	C167	C	0.326909	0.118999	0.375731
	C168	C	0.884280	0.388743	0.171912
	C169	C	0.123034	0.618031	0.170610
	C170	C	0.123251	0.388911	0.817084
	C171	C	0.884372	0.618097	0.818126
	C172	C	0.181748	0.884605	0.379344
	C173	C	0.177755	0.121168	0.610292
	C174	C	0.828956	0.122147	0.377857
	C175	C	0.826966	0.886095	0.609972
	C176	C	0.388852	0.182583	0.874584
	C177	C	0.618963	0.182367	0.112115
	C178	C	0.388420	0.828218	0.115233
	C179	C	0.618622	0.827991	0.872791
	C180	C	0.387934	0.887115	0.170969
	C181	C	0.619648	0.123907	0.168390
	C182	C	0.387827	0.123034	0.819858
	C183	C	0.619148	0.886760	0.817035
	C184	C	0.884670	0.180973	0.378570
	C185	C	0.121956	0.179695	0.609525
	C186	C	0.125403	0.826636	0.379366
	C187	C	0.882683	0.827307	0.609476
	C188	C	0.182364	0.389783	0.873413
	C189	C	0.179916	0.618369	0.112789
	C190	C	0.825657	0.388931	0.115211
	C191	C	0.826955	0.618560	0.875922
	C192	C	0.402182	0.099194	0.594984
	C193	C	0.602909	0.910350	0.592883
	C194	C	0.604958	0.098888	0.393077
	C195	C	0.404818	0.910290	0.394516
	C196	C	0.601121	0.405200	0.089756
	C197	C	0.603061	0.604419	0.898307
	C198	C	0.404118	0.604423	0.088908
	C199	C	0.406032	0.406183	0.898453
	C200	C	0.099445	0.603024	0.395190
	C201	C	0.908596	0.603911	0.594234
	C202	C	0.099443	0.403053	0.592396
	C203	C	0.909295	0.404324	0.396202
	C204	C	0.902608	0.597467	0.094509
	C205	C	0.103307	0.409314	0.092395
	C206	C	0.103576	0.598198	0.894083
	C207	C	0.903602	0.409190	0.895177
	C208	C	0.102101	0.903495	0.590417
	C209	C	0.103138	0.102721	0.398581
	C210	C	0.903531	0.103876	0.589631
	C211	C	0.906229	0.904440	0.398852
	C212	C	0.599480	0.104948	0.894068
	C213	C	0.408765	0.104684	0.093272
	C214	C	0.598749	0.905112	0.091520
	C215	C	0.408034	0.904744	0.895918
	Zn216	Zn	0.503172	0.005083	0.745212
	Zn217	Zn	0.504351	0.004836	0.243164
	Zn218	Zn	0.752223	0.503540	-0.005633
	Zn219	Zn	0.254599	0.504121	-0.005801
	Zn220	Zn	0.004209	0.754089	0.494210
	Zn221	Zn	0.003701	0.253424	0.494021
	Zn222	Zn	0.003684	0.503264	0.743797
	Zn223	Zn	0.004470	0.503278	0.244682
	Zn224	Zn	0.503491	0.754854	-0.006362
	Zn225	Zn	0.503488	0.255212	-0.006570
	Zn226	Zn	0.754309	0.004020	0.493644
	Zn227	Zn	0.253019	0.003658	0.495035
	N228	N	0.416833	0.968011	0.674090
	N229	N	0.587581	0.042145	0.671235
	N230	N	0.590347	0.967296	0.314436
	N231	N	0.419020	0.042266	0.316342
	N232	N	0.680881	0.419077	0.956952
	N233	N	0.680239	0.589234	0.031513
	N234	N	0.326251	0.590169	0.956278
	N235	N	0.327279	0.420471	0.031557
	N236	N	0.967673	0.683373	0.407097
	N237	N	0.040582	0.683313	0.581274
	N238	N	0.967048	0.324505	0.581221
	N239	N	0.041116	0.324171	0.407585
	N240	N	0.966258	0.419512	0.671103
	N241	N	0.041543	0.588426	0.671258
	N242	N	0.966673	0.588018	0.317472
	N243	N	0.042316	0.418523	0.317141
	N244	N	0.417377	0.683884	0.956675
	N245	N	0.589873	0.683803	0.030382
	N246	N	0.589906	0.326407	0.957228
	N247	N	0.416862	0.326178	0.030413
	N248	N	0.684341	0.967451	0.405965
	N249	N	0.681451	0.041468	0.579233
	N250	N	0.324953	0.967097	0.580892
	N251	N	0.325111	0.041283	0.409029
	N252	N	0.918127	0.465931	0.172933
	N253	N	0.089712	0.540516	0.171948
	N254	N	0.089259	0.466214	0.815773
	N255	N	0.918020	0.540657	0.816511
	N256	N	0.181949	0.917949	0.457591
	N257	N	0.179584	0.087326	0.532109
	N258	N	0.827209	0.088587	0.455935
	N259	N	0.826723	0.919789	0.531815
	N260	N	0.467444	0.185029	0.906423
	N261	N	0.540609	0.184372	0.079727
	N262	N	0.466715	0.825739	0.081111
	N263	N	0.540334	0.825766	0.906768
	N264	N	0.466054	0.920469	0.171210
	N265	N	0.541513	0.090077	0.170510
	N266	N	0.465892	0.089134	0.818446
	N267	N	0.541146	0.920523	0.817007
	N268	N	0.916931	0.183098	0.457308
	N269	N	0.089764	0.181806	0.530953
	N270	N	0.091004	0.824888	0.457614
	N271	N	0.916892	0.825152	0.531250
	N272	N	0.184294	0.467464	0.906716
	N273	N	0.181314	0.541085	0.078617
	N274	N	0.823162	0.466479	0.081805
	N275	N	0.824953	0.540901	0.909372
	O276	O	0.584364	0.476242	0.428927
	H277	H	0.590945	0.478541	0.432103
	H278	H	0.577357	0.467286	0.436450
	O279	O	0.556060	0.452619	0.454623
	H280	H	0.565187	0.454303	0.457252
	H281	H	0.550992	0.456882	0.450765
	O282	O	0.472914	0.478190	0.471079
	H283	H	0.472426	0.471014	0.464581
	H284	H	0.485879	0.479386	0.485033
	O285	O	-0.500906	1.524789	1.517198
	H286	H	-0.507809	1.521826	1.516283
	H287	H	-0.497328	1.518432	1.521579
	O288	O	0.572475	0.542179	0.540908
	H289	H	0.564667	0.554092	0.543272
	H290	H	0.577152	0.542493	0.549890
	O291	O	-0.469376	-0.400709	1.397468
	H292	H	-0.465722	-0.396990	1.394873
	H293	H	-0.470765	-0.407202	1.395381
	O294	O	0.536350	0.586686	0.486586
	H295	H	0.539078	0.592351	0.486826
	H296	H	0.536068	0.587222	0.487641
	O297	O	0.515611	0.504564	0.471785
	H298	H	0.516498	0.497232	0.476161
	H299	H	0.510936	0.501510	0.472222
	O300	O	0.450400	0.533431	0.536921
	H301	H	0.457067	0.541304	0.529653
	H302	H	0.440669	0.536012	0.537542
	O303	O	0.462912	0.618794	0.426038
	H304	H	0.459323	0.620959	0.427611
	H305	H	0.474286	0.621359	0.427971
	O306	O	0.987373	-0.069895	1.023412
	H307	H	0.986637	-0.068790	1.017837
	H308	H	0.993194	-0.072036	1.026430
	O309	O	0.471229	0.496096	0.445272
	H310	H	0.470305	0.495412	0.438247
	H311	H	0.462269	0.494444	0.439058
	O312	O	0.559979	0.418236	0.513268
	H313	H	0.564550	0.422641	0.517566
	H314	H	0.562507	0.410708	0.509640
	O315	O	0.969236	-0.091153	0.993071
	H316	H	0.962356	-0.083945	1.000045
	H317	H	0.966490	-0.100364	1.001594
	O318	O	-0.072312	-0.077580	0.022324
	H319	H	-0.053456	-0.078611	0.024164
	H320	H	-0.077271	-0.079793	0.025439
	O321	O	0.476735	0.512161	0.431254
	H322	H	0.483241	0.508520	0.420141
	H323	H	0.469964	0.505779	0.433382
	O324	O	0.997252	-0.123314	0.013800
	H325	H	1.002236	-0.138493	0.005105
	H326	H	0.996907	-0.114328	0.008428
	O327	O	0.990702	0.935093	-0.001631
	H328	H	0.989655	0.936705	-0.009973
	H329	H	0.978032	0.929991	0.004160
	O330	O	0.462601	0.414207	0.465125
	H331	H	0.457736	0.419517	0.467710
	H332	H	0.456862	0.425487	0.465032
	O333	O	0.469469	0.503834	0.513370
	H334	H	0.473320	0.501443	0.508598
	H335	H	0.477111	0.502440	0.508563
