data_Molecule from HDF5

_cell_length_a		16.515544
_cell_length_b		16.187284
_cell_length_c		15.873634
_cell_angle_alpha	88.948153
_cell_angle_beta	89.885912
_cell_angle_gamma	90.224800
_symmetry_space_group_name_H-M	'P 1'
_symmetry_Int_Tables_number		1

loop_
	_symmetry_equiv_pos_as_xyz
	x,y,z

loop_
	_atom_site_label
	_atom_site_type_symbol
	_atom_site_fract_x
	_atom_site_fract_y
	_atom_site_fract_z
	H0	H	0.408540	0.845003	0.716170
	H1	H	0.596988	0.176943	0.705393
	H2	H	0.596095	0.842320	0.295251
	H3	H	0.411077	0.175207	0.287098
	H4	H	0.721774	0.407138	0.838640
	H5	H	0.718732	0.609549	0.167012
	H6	H	0.284952	0.615354	0.837692
	H7	H	0.290274	0.403585	0.170182
	H8	H	0.842758	0.729538	0.397727
	H9	H	0.164528	0.728937	0.601824
	H10	H	0.843397	0.287789	0.608341
	H11	H	0.164537	0.294638	0.400959
	H12	H	0.842044	0.409471	0.719600
	H13	H	0.167558	0.604514	0.713385
	H14	H	0.841959	0.607893	0.286263
	H15	H	0.167701	0.419750	0.292581
	H16	H	0.405624	0.723627	0.834460
	H17	H	0.599902	0.717490	0.169166
	H18	H	0.598641	0.306369	0.832327
	H19	H	0.405780	0.291609	0.167995
	H20	H	0.721958	0.847895	0.400256
	H21	H	0.724213	0.170463	0.606398
	H22	H	0.283687	0.847473	0.610571
	H23	H	0.285699	0.171767	0.392405
	H24	H	0.909940	0.343079	0.217554
	H25	H	0.095640	0.676722	0.204790
	H26	H	0.100044	0.342412	0.794535
	H27	H	0.911344	0.673827	0.787596
	H28	H	0.219497	0.908949	0.336960
	H29	H	0.221328	0.109737	0.666123
	H30	H	0.786315	0.117641	0.336818
	H31	H	0.786494	0.902048	0.666953
	H32	H	0.342680	0.229888	0.896070
	H33	H	0.665241	0.226723	0.099476
	H34	H	0.343166	0.788172	0.105899
	H35	H	0.664013	0.792558	0.897135
	H36	H	0.341057	0.909034	0.217232
	H37	H	0.666540	0.104660	0.212826
	H38	H	0.340913	0.106954	0.786157
	H39	H	0.666530	0.919003	0.789521
	H40	H	0.906981	0.225136	0.334995
	H41	H	0.099996	0.215548	0.670414
	H42	H	0.099287	0.804532	0.332854
	H43	H	0.903187	0.792763	0.667385
	H44	H	0.222185	0.345933	0.901679
	H45	H	0.225182	0.669872	0.107566
	H46	H	0.783715	0.346401	0.112582
	H47	H	0.785521	0.671296	0.893247
	H48	H	0.398836	0.129594	0.587181
	H49	H	0.604239	0.892207	0.586061
	H50	H	0.593312	0.125237	0.410516
	H51	H	0.409220	0.889842	0.403709
	H52	H	0.589043	0.415337	0.120378
	H53	H	0.595069	0.598320	0.882717
	H54	H	0.406071	0.588598	0.120828
	H55	H	0.412828	0.426311	0.884415
	H56	H	0.121489	0.613034	0.404812
	H57	H	0.893187	0.595506	0.588827
	H58	H	0.119214	0.411150	0.596526
	H59	H	0.885897	0.418138	0.401994
	H60	H	0.119415	0.412868	0.596550
	H61	H	0.887780	0.600871	0.599895
	H62	H	0.118716	0.608782	0.409073
	H63	H	0.887514	0.406955	0.416506
	H64	H	0.421223	0.596612	0.118428
	H65	H	0.594367	0.604618	0.881312
	H66	H	0.598248	0.411884	0.125305
	H67	H	0.410738	0.418900	0.881666
	H68	H	0.600537	0.127199	0.411485
	H69	H	0.599844	0.887374	0.603918
	H70	H	0.413486	0.129200	0.597720
	H71	H	0.412886	0.894543	0.420022
	H72	H	0.908642	0.625433	0.088102
	H73	H	0.100984	0.390509	0.095999
	H74	H	0.095239	0.621776	0.919468
	H75	H	0.910043	0.391331	0.915985
	H76	H	0.104194	0.918746	0.624861
	H77	H	0.092061	0.103076	0.382286
	H78	H	0.906073	0.091845	0.621808
	H79	H	0.911192	0.917121	0.380706
	H80	H	0.621098	0.118853	0.907248
	H81	H	0.395294	0.094407	0.079984
	H82	H	0.620709	0.909451	0.098181
	H83	H	0.392067	0.921350	0.916312
	H84	H	0.617901	0.910896	0.088525
	H85	H	0.386717	0.096211	0.103502
	H86	H	0.615791	0.104073	0.908700
	H87	H	0.386918	0.919045	0.902843
	H88	H	0.916549	0.093435	0.617813
	H89	H	0.098103	0.107862	0.379483
	H90	H	0.090595	0.926779	0.617766
	H91	H	0.904804	0.925201	0.380125
	H92	H	0.105807	0.628078	0.909528
	H93	H	0.100752	0.389023	0.100517
	H94	H	0.906199	0.627871	0.091190
	H95	H	0.909017	0.392097	0.917848
	H96	H	0.414003	0.123832	0.579664
	H97	H	0.587094	0.895672	0.593098
	H98	H	0.598105	0.128586	0.404130
	H99	H	0.397885	0.889228	0.416137
	H100	H	0.596385	0.422481	0.121329
	H101	H	0.599143	0.601402	0.880463
	H102	H	0.407447	0.604161	0.125464
	H103	H	0.405522	0.424605	0.881683
	H104	H	0.119066	0.607078	0.403665
	H105	H	0.889167	0.607909	0.589202
	H106	H	0.119852	0.412502	0.597307
	H107	H	0.892825	0.423706	0.418072
	H108	H	0.909758	0.626298	0.092129
	H109	H	0.097080	0.390107	0.097901
	H110	H	0.091844	0.625991	0.904683
	H111	H	0.907611	0.391269	0.916284
	H112	H	0.089438	0.910064	0.622109
	H113	H	0.099108	0.099567	0.381777
	H114	H	0.911540	0.100903	0.623378
	H115	H	0.914332	0.926468	0.383985
	H116	H	0.622157	0.108867	0.894451
	H117	H	0.385679	0.115867	0.088350
	H118	H	0.617394	0.919033	0.095236
	H119	H	0.387510	0.907484	0.912899
	C120	C	0.380795	0.018801	0.621375
	C121	C	0.625361	1.000498	0.622427
	C122	C	0.624993	0.018229	0.380698
	C123	C	0.380043	0.999843	0.379797
	C124	C	0.623614	0.389208	0.011874
	C125	C	0.624675	0.629480	0.992112
	C126	C	0.382138	0.628821	0.011519
	C127	C	0.381881	0.389626	0.993097
	C128	C	0.012657	0.636371	0.376796
	C129	C	0.996556	0.630766	0.622356
	C130	C	0.012818	0.383254	0.627271
	C131	C	0.995846	0.389651	0.382818
	C132	C	0.880691	0.517681	0.123464
	C133	C	0.126315	0.499344	0.124763
	C134	C	0.125990	0.516822	0.882996
	C135	C	0.881432	0.499986	0.882677
	C136	C	0.122956	0.890891	0.510781
	C137	C	0.125067	0.130429	0.491972
	C138	C	0.882518	0.129047	0.511080
	C139	C	0.881307	0.889589	0.491806
	C140	C	0.512048	0.136881	0.875011
	C141	C	0.495811	0.130986	0.120408
	C142	C	0.511751	0.884347	0.124424
	C143	C	0.495627	0.888702	0.880243
	C144	C	0.385831	0.894701	0.679051
	C145	C	0.619827	0.126053	0.672230
	C146	C	0.619394	0.893050	0.329450
	C147	C	0.386975	0.124828	0.322973
	C148	C	0.681357	0.390061	0.886982
	C149	C	0.680352	0.628154	0.117480
	C150	C	0.324887	0.631705	0.886755
	C151	C	0.327968	0.386146	0.119689
	C152	C	0.891029	0.690918	0.378369
	C153	C	0.116864	0.688590	0.621197
	C154	C	0.891495	0.326556	0.627346
	C155	C	0.117008	0.334202	0.382908
	C156	C	0.890703	0.386995	0.682720
	C157	C	0.118368	0.626634	0.676940
	C158	C	0.890658	0.630499	0.322738
	C159	C	0.118674	0.396563	0.328970
	C160	C	0.384759	0.685768	0.884953
	C161	C	0.621093	0.681791	0.118737
	C162	C	0.620265	0.339542	0.883912
	C163	C	0.385474	0.330685	0.118642
	C164	C	0.682039	0.895805	0.381622
	C165	C	0.683477	0.122726	0.623152
	C166	C	0.323831	0.895935	0.626269
	C167	C	0.324808	0.123172	0.375739
	C168	C	0.886565	0.393236	0.181054
	C169	C	0.119711	0.625653	0.172907
	C170	C	0.121582	0.392205	0.830506
	C171	C	0.887809	0.624117	0.824355
	C172	C	0.180127	0.891369	0.385884
	C173	C	0.182061	0.128617	0.617013
	C174	C	0.825460	0.133776	0.386115
	C175	C	0.824972	0.885191	0.617095
	C176	C	0.390729	0.191281	0.876877
	C177	C	0.617398	0.187373	0.119067
	C178	C	0.390937	0.827545	0.124566
	C179	C	0.616330	0.832458	0.879288
	C180	C	0.389960	0.887631	0.180264
	C181	C	0.617935	0.126805	0.175410
	C182	C	0.389928	0.130675	0.821487
	C183	C	0.617678	0.895198	0.825572
	C184	C	0.885418	0.187542	0.385189
	C185	C	0.121930	0.181428	0.619176
	C186	C	0.120385	0.839133	0.383872
	C187	C	0.883122	0.830685	0.617170
	C188	C	0.182780	0.394219	0.883753
	C189	C	0.184032	0.622173	0.124348
	C190	C	0.823764	0.394897	0.128522
	C191	C	0.825358	0.622674	0.877391
	C192	C	0.402437	0.105199	0.595571
	C193	C	0.603507	0.914111	0.600909
	C194	C	0.603667	0.104669	0.402271
	C195	C	0.400593	0.913643	0.405517
	C196	C	0.601168	0.410330	0.099626
	C197	C	0.602680	0.607849	0.904315
	C198	C	0.404956	0.603758	0.098913
	C199	C	0.403324	0.415603	0.905385
	C200	C	0.097702	0.615885	0.399294
	C201	C	0.911820	0.608071	0.599348
	C202	C	0.097524	0.405464	0.603762
	C203	C	0.910816	0.410266	0.405502
	C204	C	0.902001	0.604112	0.097902
	C205	C	0.105607	0.412363	0.104306
	C206	C	0.104143	0.602814	0.904863
	C207	C	0.902604	0.413810	0.908911
	C208	C	0.101053	0.912060	0.598569
	C209	C	0.102950	0.109731	0.404106
	C210	C	0.904901	0.102890	0.598360
	C211	C	0.903432	0.915364	0.404299
	C212	C	0.597383	0.116656	0.896846
	C213	C	0.411248	0.108870	0.097374
	C214	C	0.596665	0.906664	0.100891
	C215	C	0.410882	0.909849	0.903659
	Zn216	Zn	0.503914	0.011129	0.748551
	Zn217	Zn	0.503467	0.008159	0.251752
	Zn218	Zn	0.750797	0.508578	0.002669
	Zn219	Zn	0.254118	0.508301	0.004195
	Zn220	Zn	0.003276	0.764855	0.500459
	Zn221	Zn	0.003670	0.256047	0.502908
	Zn222	Zn	0.004623	0.507517	0.754648
	Zn223	Zn	0.004299	0.510393	0.250446
	Zn224	Zn	0.503794	0.755903	0.001449
	Zn225	Zn	0.503534	0.264280	-0.000369
	Zn226	Zn	0.754155	0.009766	0.502526
	Zn227	Zn	0.251348	0.009004	0.501075
	N228	N	0.420373	0.972096	0.676307
	N229	N	0.584370	0.048921	0.672212
	N230	N	0.584707	0.970286	0.328582
	N231	N	0.420737	0.047291	0.325347
	N232	N	0.683613	0.420156	0.967505
	N233	N	0.682863	0.596544	0.037638
	N234	N	0.323065	0.597048	0.966561
	N235	N	0.325802	0.422284	0.040573
	N236	N	0.968048	0.695013	0.411030
	N237	N	0.040067	0.691234	0.587997
	N238	N	0.968311	0.324119	0.593649
	N239	N	0.039788	0.330051	0.415766
	N240	N	0.967030	0.421518	0.682858
	N241	N	0.042188	0.591565	0.677744
	N242	N	0.967275	0.597653	0.321345
	N243	N	0.042396	0.430439	0.328855
	N244	N	0.419771	0.684147	0.963504
	N245	N	0.587175	0.683023	0.039648
	N246	N	0.584911	0.338618	0.962474
	N247	N	0.418099	0.332675	0.038935
	N248	N	0.685743	0.974660	0.412552
	N249	N	0.687000	0.043724	0.592817
	N250	N	0.320796	0.974263	0.590942
	N251	N	0.320301	0.044557	0.410306
	N252	N	0.921289	0.470765	0.177991
	N253	N	0.084579	0.548362	0.173397
	N254	N	0.087025	0.469432	0.829604
	N255	N	0.922076	0.546632	0.827521
	N256	N	0.181903	0.922580	0.465904
	N257	N	0.184367	0.097764	0.536867
	N258	N	0.823523	0.097956	0.465545
	N259	N	0.823512	0.921338	0.538007
	N260	N	0.467929	0.195416	0.909016
	N261	N	0.540634	0.189867	0.085319
	N262	N	0.467872	0.825282	0.090550
	N263	N	0.539425	0.828300	0.912775
	N264	N	0.466091	0.922242	0.180191
	N265	N	0.541540	0.092491	0.176478
	N266	N	0.466261	0.097454	0.820277
	N267	N	0.541633	0.929485	0.826135
	N268	N	0.920237	0.184546	0.463820
	N269	N	0.087462	0.182937	0.540304
	N270	N	0.085352	0.838683	0.462533
	N271	N	0.917472	0.833294	0.538291
	N272	N	0.185641	0.472737	0.915581
	N273	N	0.188288	0.542701	0.095023
	N274	N	0.820042	0.473187	0.093627
	N275	N	0.821479	0.544545	0.912773
	O276	O	0.471796	0.561412	0.481419
	H277	H	0.470319	0.558217	0.474308
	H278	H	0.454351	0.564020	0.480433
	O279	O	0.498278	0.466723	0.548277
	H280	H	0.493304	0.470183	0.548537
	H281	H	0.501575	0.453556	0.554551
	O282	O	1.024132	0.992119	0.100107
	H283	H	1.020954	0.991683	0.096144
	H284	H	1.034521	1.000042	0.097002
	O285	O	1.040695	0.111578	1.022838
	H286	H	1.044253	0.115938	1.026533
	H287	H	1.043069	0.110022	1.016581
	O288	O	0.071203	0.087068	0.036673
	H289	H	0.075077	0.087222	0.030371
	H290	H	0.063940	0.087816	0.033913
	O291	O	0.538913	0.464783	0.509639
	H292	H	0.539673	0.456989	0.496701
	H293	H	0.532724	0.464521	0.510350
	O294	O	0.549083	0.541383	0.540276
	H295	H	0.549689	0.532008	0.544842
	H296	H	0.535716	0.539719	0.545623
	O297	O	0.055267	0.000584	0.855771
	H298	H	0.041877	-0.006416	0.858587
	H299	H	0.050932	0.005714	0.845274
	O300	O	0.505319	0.583862	0.497509
	H301	H	0.513235	0.592894	0.491683
	H302	H	0.490630	0.583398	0.494809
	O303	O	0.958204	1.063543	0.003669
	H304	H	0.964823	1.048495	0.009095
	H305	H	0.946809	1.060528	-0.002497
	O306	O	-0.501321	1.477822	0.545321
	H307	H	-0.505758	1.475890	0.548058
	H308	H	-0.495306	1.492127	0.552427
	O309	O	0.636592	0.513978	0.524263
	H310	H	0.622356	0.531975	0.530964
	H311	H	0.641465	0.515176	0.504719
	O312	O	-0.030908	-0.017225	-0.026525
	H313	H	-0.020575	-0.018049	-0.039386
	H314	H	-0.030060	-0.012122	-0.026526
	O315	O	1.063740	0.155325	-0.032895
	H316	H	1.064524	0.158352	-0.037313
	H317	H	1.072580	0.154923	-0.040714
	O318	O	1.099375	0.956081	1.010944
	H319	H	1.114572	0.956746	1.002558
	H320	H	1.089986	0.942428	1.005697
	O321	O	-0.013727	-0.132440	0.995016
	H322	H	-0.009117	-0.137082	1.000996
	H323	H	-0.019640	-0.137660	0.993160
	O324	O	0.415908	0.419377	0.535699
	H325	H	0.408064	0.418019	0.534154
	H326	H	0.420158	0.410096	0.551562
	O327	O	0.022760	0.091585	-0.033207
	H328	H	0.012320	0.095536	-0.044369
	H329	H	0.035248	0.075262	-0.027393
	O330	O	0.530224	0.540395	0.485824
	H331	H	0.529665	0.543654	0.497242
	H332	H	0.539914	0.535552	0.483873
	O333	O	-0.531355	0.603564	0.477072
	H334	H	-0.521804	0.614177	0.483258
	H335	H	-0.539915	0.590271	0.481848
	O336	O	-0.080629	-0.107214	0.104595
	H337	H	-0.088356	-0.115674	0.110609
	H338	H	-0.092747	-0.110429	0.112998
	O339	O	0.933395	-0.034627	1.040282
	H340	H	0.928152	-0.034351	1.049067
	H341	H	0.932746	-0.042217	1.045083
	O342	O	1.043448	0.861505	0.977683
	H343	H	1.048253	0.837065	0.988900
	H344	H	1.032206	0.864236	0.998379
	O345	O	0.973060	1.127840	-0.012625
	H346	H	0.977602	1.131310	-0.009376
	H347	H	0.971551	1.134650	-0.013745
	O348	O	0.505675	0.459517	0.482524
	H349	H	0.506987	0.455371	0.482231
	H350	H	0.505433	0.440147	0.484895
	O351	O	0.463027	0.523822	0.417323
	H352	H	0.455642	0.529985	0.412287
	H353	H	0.458892	0.524482	0.421852
	O354	O	0.460175	0.448436	0.503071
	H355	H	0.460371	0.434543	0.495850
	H356	H	0.454063	0.450469	0.505043
	O357	O	1.040325	-0.027861	0.966376
	H358	H	1.043627	-0.032306	0.969894
	H359	H	1.041747	-0.026632	0.962635
	O360	O	0.569083	0.657934	0.548733
	H361	H	0.570221	0.665110	0.556703
	H362	H	0.571820	0.660192	0.538004
	O363	O	0.891366	0.053188	0.897207
	H364	H	0.880800	0.056277	0.893661
	H365	H	0.889493	0.050288	0.901407
	O366	O	0.907327	0.865948	1.113570
	H367	H	0.895919	0.881559	1.119825
	H368	H	0.886899	0.860565	1.127207
	O369	O	1.017127	-0.017678	0.940826
	H370	H	1.037199	-0.018367	0.937313
	H371	H	1.010729	-0.022412	0.946975
	O372	O	0.029501	-0.048626	-0.058400
	H373	H	0.022876	-0.045459	-0.057635
	H374	H	0.031067	-0.041025	-0.056033
	O375	O	0.921714	0.009171	0.057543
	H376	H	0.915012	0.026710	0.062648
	H377	H	0.921498	0.015623	0.061714
	O378	O	0.424914	0.489349	0.563888
	H379	H	0.422683	0.486091	0.566383
	H380	H	0.430442	0.501010	0.575625
	O381	O	0.574081	0.437176	0.530849
	H382	H	0.572737	0.442928	0.542449
	H383	H	0.585494	0.443552	0.527762
