data_Molecule from HDF5

_cell_length_a		16.013632
_cell_length_b		16.313204
_cell_length_c		16.283365
_cell_angle_alpha	90.118430
_cell_angle_beta	90.111722
_cell_angle_gamma	89.811428
_symmetry_space_group_name_H-M	'P 1'
_symmetry_Int_Tables_number		1

loop_
	_symmetry_equiv_pos_as_xyz
	x,y,z

loop_
	_atom_site_label
	_atom_site_type_symbol
	_atom_site_fract_x
	_atom_site_fract_y
	_atom_site_fract_z
	H0	H	0.402407	0.836354	0.706281
	H1	H	0.603829	0.160519	0.710475
	H2	H	0.603591	0.836989	0.276014
	H3	H	0.398392	0.162086	0.275117
	H4	H	0.712994	0.403596	0.826636
	H5	H	0.714161	0.596317	0.156489
	H6	H	0.289964	0.594813	0.827356
	H7	H	0.289258	0.405689	0.157037
	H8	H	0.836385	0.712967	0.392655
	H9	H	0.168020	0.711693	0.591030
	H10	H	0.836470	0.287788	0.589611
	H11	H	0.167737	0.285433	0.392277
	H12	H	0.836244	0.402691	0.703761
	H13	H	0.167290	0.599452	0.705277
	H14	H	0.835979	0.600099	0.277887
	H15	H	0.168116	0.400593	0.278124
	H16	H	0.398847	0.717044	0.829310
	H17	H	0.603437	0.717426	0.154706
	H18	H	0.603736	0.280882	0.829619
	H19	H	0.400794	0.283591	0.155745
	H20	H	0.716101	0.835570	0.394069
	H21	H	0.712918	0.164009	0.589333
	H22	H	0.291550	0.834229	0.586650
	H23	H	0.288158	0.163604	0.396863
	H24	H	0.900124	0.337801	0.208060
	H25	H	0.100618	0.663481	0.207057
	H26	H	0.101476	0.337617	0.775969
	H27	H	0.899768	0.663438	0.774724
	H28	H	0.214969	0.902016	0.327957
	H29	H	0.213010	0.094602	0.657473
	H30	H	0.787662	0.095104	0.327471
	H31	H	0.791596	0.906301	0.657608
	H32	H	0.336358	0.212598	0.893446
	H33	H	0.667955	0.212570	0.092956
	H34	H	0.336223	0.789037	0.088913
	H35	H	0.667624	0.785607	0.893878
	H36	H	0.336576	0.901874	0.204605
	H37	H	0.667896	0.098882	0.207055
	H38	H	0.336168	0.097619	0.779159
	H39	H	0.667871	0.899578	0.779244
	H40	H	0.898818	0.215838	0.328365
	H41	H	0.102169	0.216176	0.654340
	H42	H	0.103078	0.782603	0.328424
	H43	H	0.901225	0.782330	0.654507
	H44	H	0.215004	0.336223	0.894397
	H45	H	0.212820	0.665038	0.087317
	H46	H	0.789823	0.335231	0.086889
	H47	H	0.788233	0.665575	0.896207
	H48	H	0.405453	0.119736	0.597022
	H49	H	0.595483	0.881095	0.590205
	H50	H	0.594261	0.117714	0.395327
	H51	H	0.400082	0.877843	0.390382
	H52	H	0.592475	0.409174	0.107841
	H53	H	0.589226	0.589378	0.877650
	H54	H	0.403794	0.596579	0.110904
	H55	H	0.410579	0.408698	0.876680
	H56	H	0.117247	0.585621	0.407248
	H57	H	0.884490	0.587089	0.582423
	H58	H	0.118478	0.409189	0.576348
	H59	H	0.880826	0.397441	0.400555
	H60	H	0.121279	0.413074	0.589538
	H61	H	0.881233	0.593622	0.586710
	H62	H	0.122000	0.585881	0.390023
	H63	H	0.887735	0.414999	0.406694
	H64	H	0.411142	0.591600	0.108202
	H65	H	0.589636	0.599301	0.874226
	H66	H	0.591103	0.402607	0.109179
	H67	H	0.414123	0.402000	0.875846
	H68	H	0.589010	0.115430	0.399327
	H69	H	0.592512	0.884180	0.584260
	H70	H	0.418471	0.113072	0.585100
	H71	H	0.420786	0.884407	0.390560
	H72	H	0.902149	0.619244	0.086844
	H73	H	0.095545	0.383571	0.084451
	H74	H	0.096968	0.617542	0.901289
	H75	H	0.907472	0.380298	0.884910
	H76	H	0.089089	0.907892	0.606386
	H77	H	0.105190	0.095577	0.371046
	H78	H	0.909186	0.100628	0.609498
	H79	H	0.911727	0.906402	0.376671
	H80	H	0.618433	0.085049	0.903261
	H81	H	0.384415	0.085532	0.089486
	H82	H	0.624424	0.899616	0.085720
	H83	H	0.381837	0.913813	0.890294
	H84	H	0.618817	0.909896	0.078274
	H85	H	0.379918	0.099266	0.087503
	H86	H	0.622315	0.089727	0.893815
	H87	H	0.378398	0.896660	0.896537
	H88	H	0.905432	0.093024	0.609133
	H89	H	0.090998	0.081288	0.378998
	H90	H	0.093742	0.896527	0.610754
	H91	H	0.910072	0.901476	0.374303
	H92	H	0.097522	0.619675	0.892311
	H93	H	0.095105	0.383121	0.086413
	H94	H	0.910926	0.617306	0.090474
	H95	H	0.919706	0.388170	0.899261
	H96	H	0.400735	0.116139	0.579618
	H97	H	0.599299	0.880808	0.584706
	H98	H	0.594833	0.114921	0.401339
	H99	H	0.408488	0.886035	0.408180
	H100	H	0.597738	0.404727	0.109240
	H101	H	0.597802	0.592727	0.873614
	H102	H	0.412043	0.599950	0.110322
	H103	H	0.406385	0.402447	0.873868
	H104	H	0.123563	0.601482	0.400062
	H105	H	0.883086	0.595070	0.578151
	H106	H	0.124276	0.399368	0.585160
	H107	H	0.881381	0.412325	0.388409
	H108	H	0.909525	0.615125	0.081946
	H109	H	0.093995	0.383972	0.085026
	H110	H	0.089062	0.615600	0.895877
	H111	H	0.899974	0.383890	0.903564
	H112	H	0.101425	0.906451	0.610032
	H113	H	0.084535	0.101740	0.375193
	H114	H	0.912897	0.093199	0.607057
	H115	H	0.906564	0.905766	0.374207
	H116	H	0.622033	0.095805	0.903298
	H117	H	0.386559	0.091335	0.076092
	H118	H	0.622274	0.911801	0.090697
	H119	H	0.386469	0.910026	0.907161
	C120	C	0.380258	0.007627	0.614063
	C121	C	0.623976	0.990254	0.614695
	C122	C	0.622877	0.007963	0.370173
	C123	C	0.379947	0.991033	0.369110
	C124	C	0.622991	0.377179	0.000593
	C125	C	0.622260	0.621992	0.983190
	C126	C	0.380156	0.622995	0.001176
	C127	C	0.380327	0.376970	0.983816
	C128	C	0.011000	0.620402	0.370510
	C129	C	0.992969	0.620826	0.612062
	C130	C	0.011315	0.379187	0.612207
	C131	C	0.992839	0.378796	0.369736
	C132	C	0.879400	0.508697	0.113763
	C133	C	0.123134	0.491736	0.113313
	C134	C	0.123623	0.509469	0.868755
	C135	C	0.878972	0.492259	0.868162
	C136	C	0.123766	0.876035	0.500727
	C137	C	0.122843	0.120809	0.483433
	C138	C	0.879443	0.122823	0.500392
	C139	C	0.880563	0.877197	0.483590
	C140	C	0.511300	0.119454	0.871658
	C141	C	0.493313	0.120676	0.113710
	C142	C	0.511557	0.879409	0.112658
	C143	C	0.492581	0.877864	0.870128
	C144	C	0.382589	0.884793	0.668288
	C145	C	0.622577	0.112479	0.671043
	C146	C	0.622953	0.885596	0.314244
	C147	C	0.380296	0.113775	0.314179
	C148	C	0.676752	0.381552	0.876316
	C149	C	0.677335	0.618252	0.107157
	C150	C	0.326355	0.617540	0.876859
	C151	C	0.326059	0.382886	0.107767
	C152	C	0.885959	0.675521	0.372542
	C153	C	0.118139	0.674939	0.610631
	C154	C	0.886009	0.325081	0.609854
	C155	C	0.118090	0.323300	0.372194
	C156	C	0.885889	0.382380	0.666456
	C157	C	0.117804	0.618903	0.667507
	C158	C	0.885768	0.618997	0.315688
	C159	C	0.118284	0.380752	0.315626
	C160	C	0.380693	0.678122	0.878043
	C161	C	0.622083	0.678189	0.106388
	C162	C	0.622380	0.320566	0.877806
	C163	C	0.381095	0.321824	0.106860
	C164	C	0.678688	0.885001	0.373351
	C165	C	0.677146	0.114110	0.611020
	C166	C	0.327447	0.883782	0.608879
	C167	C	0.325004	0.114343	0.374392
	C168	C	0.881398	0.386033	0.169003
	C169	C	0.120947	0.614861	0.168648
	C170	C	0.121716	0.386288	0.813783
	C171	C	0.880643	0.615153	0.813568
	C172	C	0.178016	0.880312	0.376974
	C173	C	0.176709	0.116459	0.607796
	C174	C	0.824475	0.117663	0.376663
	C175	C	0.827536	0.882865	0.607965
	C176	C	0.385932	0.174885	0.873499
	C177	C	0.618340	0.175428	0.112649
	C178	C	0.385768	0.826152	0.109596
	C179	C	0.617801	0.822718	0.873119
	C180	C	0.386090	0.881966	0.167046
	C181	C	0.618286	0.119031	0.169503
	C182	C	0.385851	0.117904	0.816666
	C183	C	0.617994	0.879654	0.816223
	C184	C	0.879667	0.177778	0.377178
	C185	C	0.121905	0.177198	0.606185
	C186	C	0.122150	0.821143	0.377190
	C187	C	0.881939	0.821562	0.606301
	C188	C	0.178301	0.385747	0.872515
	C189	C	0.176857	0.615573	0.109287
	C190	C	0.826145	0.384750	0.108853
	C191	C	0.825010	0.616090	0.873780
	C192	C	0.401707	0.094101	0.593336
	C193	C	0.602006	0.904039	0.592880
	C194	C	0.599615	0.094002	0.392155
	C195	C	0.402983	0.904907	0.390166
	C196	C	0.600425	0.398859	0.086412
	C197	C	0.599211	0.600107	0.897620
	C198	C	0.402248	0.602076	0.087423
	C199	C	0.403446	0.398099	0.897783
	C200	C	0.098473	0.597625	0.392548
	C201	C	0.905562	0.598262	0.589299
	C202	C	0.098701	0.400757	0.590088
	C203	C	0.905620	0.401511	0.392132
	C204	C	0.901161	0.594988	0.092624
	C205	C	0.101315	0.405824	0.091665
	C206	C	0.101193	0.595383	0.890236
	C207	C	0.902187	0.406240	0.889504
	C208	C	0.101401	0.897198	0.586891
	C209	C	0.100336	0.099383	0.397428
	C210	C	0.902319	0.101912	0.586299
	C211	C	0.902919	0.898223	0.397446
	C212	C	0.598410	0.096793	0.893638
	C213	C	0.406168	0.098597	0.090960
	C214	C	0.599197	0.900844	0.091261
	C215	C	0.404797	0.900197	0.891571
	Zn216	Zn	0.501896	-0.000950	0.743086
	Zn217	Zn	0.502390	-0.000345	0.240190
	Zn218	Zn	0.751212	0.500259	-0.008453
	Zn219	Zn	0.252172	0.500483	-0.008234
	Zn220	Zn	0.002162	0.747331	0.491763
	Zn221	Zn	0.001665	0.251424	0.491153
	Zn222	Zn	0.002056	0.500778	0.739132
	Zn223	Zn	0.001936	0.500047	0.242748
	Zn224	Zn	0.501441	0.751886	-0.007900
	Zn225	Zn	0.502331	0.246997	-0.007372
	Zn226	Zn	0.751754	-0.000093	0.492689
	Zn227	Zn	0.251775	-0.001082	0.492492
	N228	N	0.414658	0.963013	0.671824
	N229	N	0.590308	0.034474	0.673344
	N230	N	0.588746	0.963135	0.312211
	N231	N	0.413546	0.035830	0.310597
	N232	N	0.677241	0.416224	0.953444
	N233	N	0.677678	0.583997	0.029759
	N234	N	0.325910	0.583708	0.954291
	N235	N	0.325379	0.416364	0.030271
	N236	N	0.964713	0.676464	0.406002
	N237	N	0.039525	0.675962	0.576588
	N238	N	0.964943	0.322950	0.576843
	N239	N	0.038933	0.321935	0.405107
	N240	N	0.964903	0.415162	0.668068
	N241	N	0.038848	0.585795	0.668325
	N242	N	0.964738	0.585128	0.314443
	N243	N	0.039426	0.414365	0.313965
	N244	N	0.413187	0.681816	0.956362
	N245	N	0.588689	0.680822	0.028545
	N246	N	0.589738	0.317677	0.955953
	N247	N	0.414136	0.318369	0.028835
	N248	N	0.678892	0.962240	0.407324
	N249	N	0.678031	0.037020	0.576630
	N250	N	0.326050	0.961250	0.575681
	N251	N	0.324591	0.036978	0.407719
	N252	N	0.913456	0.464254	0.172304
	N253	N	0.088597	0.536826	0.171406
	N254	N	0.088351	0.464141	0.811311
	N255	N	0.913395	0.537103	0.809946
	N256	N	0.179026	0.913927	0.454440
	N257	N	0.177709	0.082359	0.530398
	N258	N	0.824084	0.084552	0.454256
	N259	N	0.826434	0.916672	0.530686
	N260	N	0.464945	0.176153	0.906901
	N261	N	0.539784	0.176609	0.078744
	N262	N	0.464549	0.824520	0.076285
	N263	N	0.538774	0.821834	0.905979
	N264	N	0.465303	0.914522	0.169067
	N265	N	0.539463	0.085649	0.170395
	N266	N	0.464582	0.084099	0.815248
	N267	N	0.538988	0.913159	0.814352
	N268	N	0.913239	0.181195	0.455112
	N269	N	0.088987	0.179996	0.528023
	N270	N	0.088965	0.818386	0.455130
	N271	N	0.913936	0.817965	0.527988
	N272	N	0.179850	0.463162	0.905886
	N273	N	0.178050	0.538290	0.075384
	N274	N	0.824713	0.462073	0.075251
	N275	N	0.823820	0.538456	0.906853
	O276	O	0.624185	0.428228	0.399947
	H277	H	0.610489	0.433432	0.403877
	H278	H	0.624607	0.420231	0.402526
	O279	O	0.557123	0.481027	0.501710
	H280	H	0.552795	0.481661	0.492935
	H281	H	0.553342	0.483685	0.500471
	O282	O	0.480563	0.532658	0.410362
	H283	H	0.480535	0.540377	0.411496
	H284	H	0.465767	0.517117	0.403561
	O285	O	-0.393471	1.589195	1.564981
	H286	H	-0.397716	1.597643	1.556878
	H287	H	-0.394219	1.605012	1.566803
	O288	O	0.476285	0.435093	0.392107
	H289	H	0.483329	0.428955	0.389477
	H290	H	0.481292	0.434492	0.395834
	O291	O	-0.482875	-0.417071	1.536907
	H292	H	-0.464745	-0.409402	1.536363
	H293	H	-0.474694	-0.413641	1.545514
	O294	O	0.589618	0.434305	0.422259
	H295	H	0.594365	0.416839	0.416747
	H296	H	0.599679	0.430231	0.426074
	O297	O	0.639319	0.490587	0.510442
	H298	H	0.649333	0.485260	0.509340
	H299	H	0.638448	0.499342	0.518405
	O300	O	0.411441	0.403535	0.532356
	H301	H	0.404667	0.390451	0.531625
	H302	H	0.421981	0.404116	0.531226
	O303	O	0.479155	0.511602	0.519476
	H304	H	0.470491	0.507441	0.522319
	H305	H	0.485412	0.509712	0.530003
	O306	O	0.996458	0.086992	0.965149
	H307	H	0.985157	0.088155	0.970253
	H308	H	0.995440	0.083387	0.961991
	O309	O	0.540735	0.377301	0.533867
	H310	H	0.548406	0.370567	0.526409
	H311	H	0.539731	0.358886	0.542719
	O312	O	0.430623	0.452998	0.488501
	H313	H	0.429570	0.459598	0.493657
	H314	H	0.427838	0.453243	0.495174
	O315	O	1.055355	0.119653	1.009407
	H316	H	1.049431	0.114553	1.002199
	H317	H	1.062907	0.126254	1.008317
	O318	O	-0.003659	0.118086	-0.001687
	H319	H	0.001017	0.118618	0.006904
	H320	H	0.007136	0.117865	-0.006028
	O321	O	0.425388	0.478383	0.542100
	H322	H	0.430030	0.482714	0.538953
	H323	H	0.413219	0.479688	0.544143
	O324	O	0.948479	0.135074	0.012148
	H325	H	0.945950	0.133896	0.012533
	H326	H	0.952697	0.145011	0.011538
	O327	O	0.990713	1.081667	0.019731
	H328	H	0.988111	1.085580	0.022335
	H329	H	0.989313	1.090792	0.030628
	O330	O	0.490953	0.522975	0.614658
	H331	H	0.493368	0.527931	0.628010
	H332	H	0.496621	0.520039	0.608661
	O333	O	0.533415	0.654680	0.526455
	H334	H	0.522830	0.652196	0.520716
	H335	H	0.540470	0.660207	0.516773
