data_Molecule from HDF5

_cell_length_a		16.285898
_cell_length_b		15.944189
_cell_length_c		16.279603
_cell_angle_alpha	89.186365
_cell_angle_beta	90.113729
_cell_angle_gamma	90.673520
_symmetry_space_group_name_H-M	'P 1'
_symmetry_Int_Tables_number		1

loop_
	_symmetry_equiv_pos_as_xyz
	x,y,z

loop_
	_atom_site_label
	_atom_site_type_symbol
	_atom_site_fract_x
	_atom_site_fract_y
	_atom_site_fract_z
	H0	H	0.396375	0.834774	0.711085
	H1	H	0.597411	0.168248	0.703752
	H2	H	0.591984	0.833588	0.285245
	H3	H	0.397902	0.166840	0.277436
	H4	H	0.712135	0.404734	0.831979
	H5	H	0.716578	0.603093	0.157850
	H6	H	0.280999	0.606005	0.833104
	H7	H	0.279190	0.394073	0.158278
	H8	H	0.832276	0.710411	0.397426
	H9	H	0.161782	0.713183	0.588281
	H10	H	0.832232	0.284577	0.593550
	H11	H	0.162391	0.291333	0.400918
	H12	H	0.833690	0.394167	0.713016
	H13	H	0.160500	0.602555	0.709546
	H14	H	0.835406	0.603109	0.276196
	H15	H	0.160208	0.402280	0.280059
	H16	H	0.405764	0.714103	0.830039
	H17	H	0.594699	0.712334	0.160175
	H18	H	0.591781	0.295544	0.829107
	H19	H	0.399318	0.283097	0.159234
	H20	H	0.706795	0.833702	0.398105
	H21	H	0.712749	0.166902	0.591723
	H22	H	0.282321	0.833807	0.596390
	H23	H	0.284303	0.168978	0.394222
	H24	H	0.896519	0.335483	0.211691
	H25	H	0.098741	0.668780	0.204690
	H26	H	0.092646	0.333558	0.784696
	H27	H	0.900406	0.667000	0.778631
	H28	H	0.212005	0.900130	0.333919
	H29	H	0.215627	0.101727	0.658603
	H30	H	0.781619	0.102796	0.332098
	H31	H	0.778321	0.894571	0.658153
	H32	H	0.331882	0.213457	0.895569
	H33	H	0.661756	0.214329	0.089381
	H34	H	0.333691	0.783803	0.092342
	H35	H	0.662659	0.795010	0.900822
	H36	H	0.334960	0.893811	0.213034
	H37	H	0.659688	0.105381	0.211687
	H38	H	0.335117	0.103351	0.774644
	H39	H	0.660708	0.903516	0.780450
	H40	H	0.902286	0.215291	0.331264
	H41	H	0.095429	0.211754	0.661365
	H42	H	0.088053	0.795524	0.329366
	H43	H	0.899939	0.783972	0.659291
	H44	H	0.208950	0.333946	0.898876
	H45	H	0.214929	0.666381	0.094355
	H46	H	0.782429	0.335346	0.096619
	H47	H	0.788458	0.668692	0.894614
	H48	H	0.403604	0.120875	0.584357
	H49	H	0.589979	0.880961	0.586121
	H50	H	0.588066	0.118736	0.405310
	H51	H	0.410487	0.885528	0.409274
	H52	H	0.581204	0.412704	0.107684
	H53	H	0.598375	0.598293	0.876994
	H54	H	0.400492	0.597348	0.115370
	H55	H	0.394015	0.403642	0.873782
	H56	H	0.116274	0.597654	0.396057
	H57	H	0.878796	0.598801	0.582469
	H58	H	0.111582	0.418049	0.592259
	H59	H	0.881641	0.408159	0.405062
	H60	H	0.116158	0.405681	0.598143
	H61	H	0.883641	0.581141	0.585170
	H62	H	0.115388	0.599530	0.401715
	H63	H	0.881635	0.411770	0.400799
	H64	H	0.400939	0.582006	0.111663
	H65	H	0.592609	0.594120	0.878714
	H66	H	0.590676	0.397830	0.115452
	H67	H	0.397555	0.419997	0.880553
	H68	H	0.592558	0.121478	0.401823
	H69	H	0.588651	0.878422	0.594200
	H70	H	0.406826	0.121047	0.586941
	H71	H	0.393147	0.881620	0.410690
	H72	H	0.893946	0.625935	0.087427
	H73	H	0.079906	0.382488	0.094311
	H74	H	0.082189	0.618636	0.898254
	H75	H	0.898581	0.376985	0.893165
	H76	H	0.092613	0.914173	0.611865
	H77	H	0.086473	0.086462	0.382878
	H78	H	0.903580	0.092722	0.613503
	H79	H	0.899639	0.906563	0.376612
	H80	H	0.615067	0.095878	0.895268
	H81	H	0.381640	0.083542	0.090026
	H82	H	0.614059	0.905531	0.085285
	H83	H	0.378491	0.911951	0.891685
	H84	H	0.612500	0.918241	0.090973
	H85	H	0.378150	0.095532	0.090064
	H86	H	0.615550	0.102781	0.895623
	H87	H	0.378033	0.898778	0.903683
	H88	H	0.899732	0.088107	0.612969
	H89	H	0.085556	0.104094	0.378812
	H90	H	0.082430	0.905137	0.611586
	H91	H	0.896195	0.907943	0.376975
	H92	H	0.091531	0.618754	0.910050
	H93	H	0.087098	0.383635	0.081028
	H94	H	0.915717	0.623137	0.096421
	H95	H	0.913555	0.384742	0.906418
	H96	H	0.407480	0.119176	0.582299
	H97	H	0.582215	0.881740	0.590556
	H98	H	0.586653	0.120340	0.399013
	H99	H	0.401420	0.878415	0.395002
	H100	H	0.601065	0.415232	0.112943
	H101	H	0.591920	0.602232	0.877444
	H102	H	0.413739	0.591333	0.109784
	H103	H	0.409958	0.407685	0.880107
	H104	H	0.114275	0.593770	0.399444
	H105	H	0.876040	0.591598	0.598447
	H106	H	0.112255	0.406246	0.584314
	H107	H	0.878958	0.406829	0.400160
	H108	H	0.910903	0.616524	0.073998
	H109	H	0.094789	0.377772	0.093180
	H110	H	0.096588	0.623309	0.896202
	H111	H	0.894157	0.380685	0.913815
	H112	H	0.094989	0.901341	0.615989
	H113	H	0.099335	0.095367	0.376740
	H114	H	0.905324	0.086863	0.611402
	H115	H	0.898975	0.909969	0.378503
	H116	H	0.612916	0.099066	0.901143
	H117	H	0.382565	0.089877	0.079596
	H118	H	0.617210	0.906977	0.098544
	H119	H	0.383749	0.915605	0.908003
	C120	C	0.375979	0.009963	0.615527
	C121	C	0.617322	0.991183	0.616455
	C122	C	0.616575	0.009706	0.374656
	C123	C	0.374002	0.992009	0.373955
	C124	C	0.618832	0.381417	0.003494
	C125	C	0.622309	0.625593	0.986185
	C126	C	0.377058	0.621700	0.004073
	C127	C	0.373242	0.378448	0.986475
	C128	C	0.006667	0.624462	0.370843
	C129	C	0.988081	0.621343	0.616115
	C130	C	0.005094	0.378269	0.619469
	C131	C	0.989097	0.380490	0.374373
	C132	C	0.876693	0.511299	0.116337
	C133	C	0.117955	0.491719	0.116772
	C134	C	0.117951	0.510008	0.874213
	C135	C	0.875885	0.491559	0.874236
	C136	C	0.116701	0.880236	0.504357
	C137	C	0.119742	0.123535	0.487637
	C138	C	0.874877	0.120843	0.504629
	C139	C	0.871620	0.877271	0.486109
	C140	C	0.506253	0.125997	0.869273
	C141	C	0.488553	0.121636	0.115216
	C142	C	0.506276	0.878462	0.118980
	C143	C	0.488792	0.881880	0.873882
	C144	C	0.376777	0.884602	0.672803
	C145	C	0.617111	0.117711	0.668126
	C146	C	0.612813	0.883774	0.321555
	C147	C	0.377095	0.117349	0.316009
	C148	C	0.673639	0.384923	0.880360
	C149	C	0.677785	0.622519	0.109238
	C150	C	0.320856	0.623387	0.881163
	C151	C	0.318049	0.376326	0.109453
	C152	C	0.882249	0.675758	0.375290
	C153	C	0.112214	0.676620	0.610957
	C154	C	0.881833	0.321682	0.615372
	C155	C	0.112791	0.327675	0.379086
	C156	C	0.882394	0.376335	0.674910
	C157	C	0.111603	0.621368	0.671093
	C158	C	0.883749	0.622062	0.315153
	C159	C	0.111756	0.382746	0.318699
	C160	C	0.382400	0.677579	0.879846
	C161	C	0.617312	0.677261	0.110484
	C162	C	0.613573	0.330596	0.879069
	C163	C	0.377687	0.320952	0.109862
	C164	C	0.669694	0.883645	0.377946
	C165	C	0.674419	0.117128	0.612377
	C166	C	0.319836	0.884097	0.615748
	C167	C	0.320431	0.118059	0.374099
	C168	C	0.877161	0.385626	0.173260
	C169	C	0.118099	0.617977	0.169120
	C170	C	0.114190	0.383689	0.821166
	C171	C	0.880019	0.617548	0.817273
	C172	C	0.172481	0.882224	0.381791
	C173	C	0.176481	0.121236	0.610206
	C174	C	0.819872	0.121884	0.380937
	C175	C	0.817100	0.876570	0.609574
	C176	C	0.381836	0.177925	0.873858
	C177	C	0.612222	0.177580	0.111320
	C178	C	0.383027	0.821187	0.114397
	C179	C	0.613083	0.830181	0.878939
	C180	C	0.383490	0.876081	0.174248
	C181	C	0.610952	0.123238	0.172163
	C182	C	0.383294	0.123026	0.813674
	C183	C	0.612044	0.884630	0.819207
	C184	C	0.879790	0.177707	0.380546
	C185	C	0.116536	0.175955	0.611749
	C186	C	0.111003	0.829976	0.379360
	C187	C	0.877371	0.821365	0.609983
	C188	C	0.171490	0.383834	0.878113
	C189	C	0.175931	0.617064	0.113875
	C190	C	0.820495	0.385281	0.115966
	C191	C	0.824183	0.618176	0.874758
	C192	C	0.399120	0.097628	0.591568
	C193	C	0.593935	0.903209	0.596261
	C194	C	0.595440	0.097485	0.395741
	C195	C	0.395328	0.904495	0.397766
	C196	C	0.597444	0.402365	0.089819
	C197	C	0.600743	0.604412	0.899814
	C198	C	0.398608	0.597401	0.090109
	C199	C	0.394250	0.403091	0.900441
	C200	C	0.092904	0.603407	0.392646
	C201	C	0.901871	0.597565	0.594949
	C202	C	0.091135	0.402863	0.597788
	C203	C	0.903000	0.402421	0.395707
	C204	C	0.899825	0.598990	0.092873
	C205	C	0.094358	0.403929	0.095675
	C206	C	0.096509	0.597432	0.895163
	C207	C	0.896004	0.403535	0.897582
	C208	C	0.095920	0.900701	0.590739
	C209	C	0.097135	0.101908	0.401696
	C210	C	0.896498	0.096448	0.590445
	C211	C	0.892252	0.901124	0.399633
	C212	C	0.592172	0.105379	0.890879
	C213	C	0.402847	0.096941	0.093124
	C214	C	0.592371	0.903031	0.097807
	C215	C	0.402344	0.902754	0.894928
	Zn216	Zn	0.497462	0.001531	0.742794
	Zn217	Zn	0.496645	0.000446	0.246706
	Zn218	Zn	0.749495	0.501805	-0.004860
	Zn219	Zn	0.245027	0.500682	-0.003951
	Zn220	Zn	-0.003548	0.750994	0.493885
	Zn221	Zn	-0.002756	0.250951	0.497120
	Zn222	Zn	-0.003847	0.500336	0.746677
	Zn223	Zn	-0.002028	0.502867	0.244095
	Zn224	Zn	0.498677	0.752070	-0.004726
	Zn225	Zn	0.497025	0.252033	-0.006047
	Zn226	Zn	0.743932	-0.000243	0.495511
	Zn227	Zn	0.247057	0.000656	0.496091
	N228	N	0.410892	0.963928	0.672727
	N229	N	0.582578	0.038471	0.670982
	N230	N	0.580056	0.963180	0.319684
	N231	N	0.409657	0.037979	0.315679
	N232	N	0.677032	0.415745	0.958778
	N233	N	0.680957	0.591316	0.030937
	N234	N	0.317270	0.589489	0.959431
	N235	N	0.315258	0.411437	0.031748
	N236	N	0.959631	0.677300	0.409538
	N237	N	0.034411	0.676850	0.577626
	N238	N	0.959166	0.322664	0.581737
	N239	N	0.035492	0.326166	0.413134
	N240	N	0.960310	0.410969	0.677570
	N241	N	0.033374	0.587625	0.674437
	N242	N	0.962185	0.591297	0.311922
	N243	N	0.033824	0.415088	0.315871
	N244	N	0.416580	0.676568	0.957323
	N245	N	0.583576	0.679348	0.032959
	N246	N	0.579991	0.328256	0.956736
	N247	N	0.411190	0.322018	0.032303
	N248	N	0.672341	0.963031	0.410001
	N249	N	0.674832	0.037324	0.581129
	N250	N	0.319333	0.963141	0.580739
	N251	N	0.318283	0.039021	0.409265
	N252	N	0.911622	0.464964	0.173479
	N253	N	0.082841	0.539046	0.171146
	N254	N	0.081376	0.462885	0.818600
	N255	N	0.911475	0.537860	0.816798
	N256	N	0.176035	0.912992	0.460335
	N257	N	0.178669	0.089511	0.532042
	N258	N	0.816683	0.087303	0.458868
	N259	N	0.813196	0.910318	0.531372
	N260	N	0.459184	0.180078	0.907857
	N261	N	0.535215	0.176608	0.076524
	N262	N	0.460604	0.822415	0.080858
	N263	N	0.535506	0.828233	0.912607
	N264	N	0.461001	0.911068	0.177179
	N265	N	0.532945	0.088853	0.174534
	N266	N	0.461499	0.091623	0.810561
	N267	N	0.533760	0.915936	0.816027
	N268	N	0.913188	0.177430	0.458368
	N269	N	0.081845	0.177520	0.534610
	N270	N	0.077021	0.828495	0.456684
	N271	N	0.910239	0.821544	0.532146
	N272	N	0.174010	0.463268	0.910334
	N273	N	0.176053	0.537464	0.082131
	N274	N	0.819934	0.464472	0.081370
	N275	N	0.821469	0.538921	0.909412
	O276	O	-0.036888	0.069582	-0.034847
	H277	H	-0.037707	0.065850	-0.039473
	H278	H	-0.048490	0.075195	-0.042964
	O279	O	0.457553	0.517224	0.553435
	H280	H	0.458017	0.507465	0.555082
	H281	H	0.449285	0.522776	0.541928
	O282	O	0.401835	0.355531	0.607872
	H283	H	0.401728	0.358640	0.612432
	H284	H	0.408066	0.360552	0.605968
	O285	O	0.112418	0.976133	0.979426
	H286	H	0.107982	0.968474	0.987564
	H287	H	0.120110	0.975925	0.979926
	O288	O	0.494496	0.444417	0.467083
	H289	H	0.496065	0.454989	0.461068
	H290	H	0.490857	0.443665	0.459138
	O291	O	1.123362	1.017830	1.058004
	H292	H	1.122317	1.016517	1.064414
	H293	H	1.120844	1.018867	1.072833
	O294	O	0.850489	0.914041	1.033894
	H295	H	0.851630	0.921802	1.034733
	H296	H	0.843352	0.905066	1.025412
	O297	O	0.911433	0.077425	0.921981
	H298	H	0.925963	0.085154	0.928352
	H299	H	0.910257	0.086445	0.911068
	O300	O	0.577652	0.563568	0.529913
	H301	H	0.568307	0.564388	0.528669
	H302	H	0.567176	0.566103	0.520229
	O303	O	1.052295	0.042278	0.018084
	H304	H	1.049517	0.033964	0.014441
	H305	H	1.048025	0.039883	0.029478
	O306	O	0.048741	1.099657	0.993965
	H307	H	0.051094	1.093334	1.000032
	H308	H	0.053357	1.091400	0.989542
	O309	O	0.467690	0.527915	0.416360
	H310	H	0.470997	0.526470	0.406459
	H311	H	0.475024	0.520693	0.406913
	O312	O	1.113901	-0.015796	1.020017
	H313	H	1.123199	-0.012946	1.016961
	H314	H	1.120932	-0.008709	1.021819
	O315	O	0.476514	0.455092	0.399180
	H316	H	0.482873	0.455037	0.394173
	H317	H	0.483311	0.446462	0.415370
	O318	O	0.417816	0.533507	0.471717
	H319	H	0.415206	0.537463	0.470861
	H320	H	0.415150	0.546162	0.469449
	O321	O	0.998839	0.917281	0.910689
	H322	H	1.005301	0.918866	0.922630
	H323	H	0.988612	0.916455	0.915951
	O324	O	0.499071	0.476214	0.436172
	H325	H	0.496832	0.458639	0.437805
	H326	H	0.505447	0.485401	0.437864
	O327	O	0.617837	0.597899	0.598351
	H328	H	0.616773	0.600259	0.599678
	H329	H	0.622399	0.596262	0.600152
	O330	O	1.007119	0.051071	1.070457
	H331	H	1.010626	0.058477	1.073438
	H332	H	1.003137	0.059786	1.065603
	O333	O	0.947227	1.028459	-0.038183
	H334	H	0.953235	1.028577	-0.045706
	H335	H	0.947813	1.029829	-0.034198
	O336	O	0.381640	0.516932	0.482153
	H337	H	0.384523	0.525444	0.481223
	H338	H	0.385513	0.506427	0.463984
	O339	O	0.526105	0.436097	0.515042
	H340	H	0.523245	0.433573	0.517209
	H341	H	0.539603	0.436629	0.531274
	O342	O	-0.064638	0.937344	0.085529
	H343	H	-0.073665	0.945328	0.083561
	H344	H	-0.064077	0.924256	0.102027
	O345	O	0.092579	0.040902	0.035902
	H346	H	0.106817	0.050768	0.037850
	H347	H	0.094088	0.032711	0.025955
	O348	O	0.482779	0.523106	0.430449
	H349	H	0.496269	0.516657	0.442904
	H350	H	0.477907	0.524812	0.421289
	O351	O	0.549740	0.466503	0.583725
	H352	H	0.545345	0.470964	0.593510
	H353	H	0.539341	0.466304	0.589617
	O354	O	0.629726	0.544618	0.516272
	H355	H	0.638596	0.548509	0.520255
	H356	H	0.618322	0.538699	0.530938
	O357	O	0.458661	0.586847	0.444450
	H358	H	0.461917	0.582230	0.435011
	H359	H	0.445293	0.583669	0.445626
	O360	O	0.031941	-0.007399	0.132211
	H361	H	0.036500	-0.000280	0.126593
	H362	H	0.024039	-0.000494	0.128603
	O363	O	0.359850	0.473539	0.619181
	H364	H	0.357525	0.469763	0.607291
	H365	H	0.348104	0.478535	0.624676
	O366	O	-0.079142	0.040921	0.963116
	H367	H	-0.082990	0.031217	0.958782
	H368	H	-0.088000	0.037104	0.963768
	O369	O	0.531262	0.446977	0.383687
	H370	H	0.524050	0.441716	0.392120
	H371	H	0.532199	0.444111	0.385464
