data_Molecule from HDF5

_cell_length_a		16.155937
_cell_length_b		16.242127
_cell_length_c		16.121571
_cell_angle_alpha	89.813059
_cell_angle_beta	90.056973
_cell_angle_gamma	90.647230
_symmetry_space_group_name_H-M	'P 1'
_symmetry_Int_Tables_number		1

loop_
	_symmetry_equiv_pos_as_xyz
	x,y,z

loop_
	_atom_site_label
	_atom_site_type_symbol
	_atom_site_fract_x
	_atom_site_fract_y
	_atom_site_fract_z
	H0	H	0.405221	0.838210	0.709105
	H1	H	0.608105	0.166907	0.708760
	H2	H	0.602246	0.837531	0.282378
	H3	H	0.410968	0.166236	0.277920
	H4	H	0.718382	0.407536	0.829257
	H5	H	0.720498	0.601814	0.160708
	H6	H	0.295198	0.598211	0.829513
	H7	H	0.291292	0.400988	0.160553
	H8	H	0.841040	0.715423	0.397210
	H9	H	0.169934	0.721899	0.597146
	H10	H	0.842780	0.285770	0.598654
	H11	H	0.171784	0.292315	0.397849
	H12	H	0.840396	0.406031	0.708615
	H13	H	0.172411	0.603513	0.707839
	H14	H	0.841549	0.601000	0.282779
	H15	H	0.170932	0.407820	0.283455
	H16	H	0.408272	0.715056	0.830717
	H17	H	0.607185	0.716543	0.160875
	H18	H	0.605793	0.289338	0.830157
	H19	H	0.405643	0.285663	0.160073
	H20	H	0.718154	0.838587	0.395853
	H21	H	0.722835	0.167450	0.592126
	H22	H	0.289907	0.839018	0.592315
	H23	H	0.295831	0.167705	0.394551
	H24	H	0.905610	0.339752	0.211273
	H25	H	0.108050	0.668918	0.210205
	H26	H	0.102781	0.339920	0.781978
	H27	H	0.910062	0.668984	0.782599
	H28	H	0.215002	0.909932	0.328110
	H29	H	0.224723	0.105735	0.659043
	H30	H	0.796777	0.098601	0.328325
	H31	H	0.790965	0.903837	0.660629
	H32	H	0.341445	0.214828	0.894194
	H33	H	0.669978	0.220783	0.096391
	H34	H	0.342535	0.786206	0.094476
	H35	H	0.672279	0.790812	0.896790
	H36	H	0.342022	0.902180	0.206465
	H37	H	0.672715	0.100258	0.204811
	H38	H	0.342444	0.099793	0.779946
	H39	H	0.672831	0.908590	0.782647
	H40	H	0.908430	0.217942	0.330772
	H41	H	0.106397	0.216129	0.661625
	H42	H	0.103956	0.790992	0.330556
	H43	H	0.907254	0.789961	0.661766
	H44	H	0.216501	0.338172	0.897846
	H45	H	0.224326	0.667013	0.093947
	H46	H	0.789671	0.339598	0.095144
	H47	H	0.796098	0.668846	0.898422
	H48	H	0.407992	0.127368	0.602087
	H49	H	0.595130	0.884072	0.596625
	H50	H	0.603452	0.120172	0.403923
	H51	H	0.414711	0.883896	0.397104
	H52	H	0.596350	0.404277	0.115517
	H53	H	0.604852	0.597255	0.876395
	H54	H	0.423061	0.596764	0.112907
	H55	H	0.413383	0.410637	0.877968
	H56	H	0.124963	0.603126	0.406304
	H57	H	0.888502	0.591373	0.591339
	H58	H	0.124516	0.420713	0.600728
	H59	H	0.887887	0.406333	0.406756
	H60	H	0.129160	0.398001	0.591496
	H61	H	0.886220	0.599268	0.592404
	H62	H	0.123655	0.595889	0.405048
	H63	H	0.890178	0.412140	0.406183
	H64	H	0.408267	0.599760	0.117849
	H65	H	0.598413	0.597738	0.877291
	H66	H	0.603739	0.413875	0.113505
	H67	H	0.412993	0.405824	0.876506
	H68	H	0.604012	0.122003	0.395970
	H69	H	0.592211	0.888479	0.581133
	H70	H	0.433858	0.115182	0.587253
	H71	H	0.408834	0.886325	0.405704
	H72	H	0.912415	0.620756	0.087474
	H73	H	0.094469	0.386846	0.094124
	H74	H	0.100147	0.620563	0.904321
	H75	H	0.912356	0.384076	0.894595
	H76	H	0.110997	0.910128	0.617459
	H77	H	0.093828	0.103816	0.377245
	H78	H	0.906271	0.093338	0.616300
	H79	H	0.916006	0.911088	0.379322
	H80	H	0.624714	0.098076	0.903952
	H81	H	0.386220	0.094446	0.091846
	H82	H	0.623304	0.912802	0.083991
	H83	H	0.388836	0.910476	0.898519
	H84	H	0.627990	0.911073	0.095379
	H85	H	0.388017	0.097704	0.083492
	H86	H	0.624656	0.095761	0.902840
	H87	H	0.386368	0.902030	0.899917
	H88	H	0.918426	0.088679	0.610208
	H89	H	0.106877	0.103469	0.373710
	H90	H	0.095020	0.923780	0.609703
	H91	H	0.912226	0.903059	0.375158
	H92	H	0.105333	0.622129	0.902508
	H93	H	0.096319	0.387331	0.088788
	H94	H	0.911742	0.623539	0.093271
	H95	H	0.917629	0.389072	0.906821
	H96	H	0.407662	0.118069	0.571804
	H97	H	0.607332	0.883402	0.585513
	H98	H	0.597201	0.118694	0.399409
	H99	H	0.404434	0.882627	0.397673
	H100	H	0.592024	0.414579	0.109914
	H101	H	0.601210	0.600840	0.874732
	H102	H	0.412002	0.585379	0.112733
	H103	H	0.408531	0.408668	0.875756
	H104	H	0.126346	0.600047	0.399393
	H105	H	0.888487	0.598038	0.585179
	H106	H	0.120436	0.414495	0.577099
	H107	H	0.886280	0.409550	0.400935
	H108	H	0.917009	0.621035	0.090712
	H109	H	0.100222	0.385267	0.091679
	H110	H	0.101566	0.622250	0.899195
	H111	H	0.903396	0.384902	0.905380
	H112	H	0.089107	0.902224	0.613617
	H113	H	0.100573	0.092198	0.378501
	H114	H	0.917067	0.102093	0.614773
	H115	H	0.906732	0.911100	0.375325
	H116	H	0.625547	0.098718	0.901672
	H117	H	0.390474	0.088630	0.086148
	H118	H	0.628116	0.901691	0.087776
	H119	H	0.389523	0.906410	0.906719
	C120	C	0.385483	0.011550	0.615643
	C121	C	0.628297	0.994376	0.615838
	C122	C	0.628127	0.011346	0.372336
	C123	C	0.384025	0.993288	0.371329
	C124	C	0.626924	0.382417	0.003848
	C125	C	0.629354	0.625959	0.986283
	C126	C	0.386232	0.622036	0.004663
	C127	C	0.383126	0.379031	0.986122
	C128	C	0.015589	0.626367	0.374886
	C129	C	0.997263	0.625797	0.617799
	C130	C	0.015544	0.381582	0.618697
	C131	C	0.997160	0.382458	0.375916
	C132	C	0.884311	0.512802	0.118608
	C133	C	0.128319	0.495008	0.119228
	C134	C	0.128331	0.512340	0.874162
	C135	C	0.884444	0.495092	0.873943
	C136	C	0.126282	0.884084	0.503809
	C137	C	0.129236	0.127279	0.486262
	C138	C	0.885719	0.123738	0.504324
	C139	C	0.883334	0.880306	0.486400
	C140	C	0.515804	0.124799	0.873353
	C141	C	0.497547	0.123323	0.115806
	C142	C	0.516642	0.879337	0.116907
	C143	C	0.498011	0.880356	0.873402
	C144	C	0.385862	0.887506	0.670961
	C145	C	0.627794	0.117894	0.671006
	C146	C	0.623435	0.886834	0.319176
	C147	C	0.389407	0.117255	0.315783
	C148	C	0.681584	0.386108	0.879131
	C149	C	0.683598	0.622581	0.111007
	C150	C	0.332090	0.618823	0.879371
	C151	C	0.328172	0.380595	0.110803
	C152	C	0.890695	0.678994	0.377128
	C153	C	0.121217	0.682714	0.616293
	C154	C	0.891632	0.324655	0.617875
	C155	C	0.122108	0.329539	0.378253
	C156	C	0.890460	0.384700	0.672417
	C157	C	0.122299	0.624024	0.671441
	C158	C	0.890777	0.622008	0.320290
	C159	C	0.121909	0.386936	0.321324
	C160	C	0.388372	0.676778	0.879799
	C161	C	0.626873	0.679551	0.111137
	C162	C	0.625362	0.327329	0.879523
	C163	C	0.385176	0.323174	0.110430
	C164	C	0.681162	0.887513	0.375518
	C165	C	0.684928	0.118089	0.612897
	C166	C	0.328417	0.887901	0.612821
	C167	C	0.332103	0.118018	0.373703
	C168	C	0.885554	0.388848	0.173355
	C169	C	0.127803	0.619091	0.173001
	C170	C	0.123424	0.388573	0.819968
	C171	C	0.889121	0.619662	0.820044
	C172	C	0.179268	0.888003	0.378362
	C173	C	0.186127	0.125150	0.610079
	C174	C	0.832999	0.120092	0.378488
	C175	C	0.828073	0.883022	0.611139
	C176	C	0.391159	0.177805	0.874977
	C177	C	0.621341	0.181036	0.114924
	C178	C	0.392030	0.823936	0.114418
	C179	C	0.622758	0.827846	0.876511
	C180	C	0.391754	0.881965	0.169915
	C181	C	0.622701	0.121318	0.169158
	C182	C	0.391558	0.120802	0.817796
	C183	C	0.623124	0.886164	0.819585
	C184	C	0.887962	0.179747	0.379863
	C185	C	0.127175	0.180276	0.611418
	C186	C	0.123430	0.829212	0.379440
	C187	C	0.886172	0.826506	0.611845
	C188	C	0.180033	0.387950	0.877567
	C189	C	0.186050	0.617992	0.115385
	C190	C	0.828112	0.388731	0.115440
	C191	C	0.832377	0.619708	0.877518
	C192	C	0.409455	0.097905	0.593571
	C193	C	0.605095	0.907628	0.594293
	C194	C	0.607684	0.097883	0.393436
	C195	C	0.403583	0.906680	0.393467
	C196	C	0.604076	0.404356	0.090600
	C197	C	0.607834	0.604952	0.898790
	C198	C	0.408115	0.600523	0.091827
	C199	C	0.405090	0.401476	0.899102
	C200	C	0.102464	0.605764	0.397169
	C201	C	0.910066	0.602981	0.595997
	C202	C	0.102360	0.404460	0.596450
	C203	C	0.910687	0.403133	0.398251
	C204	C	0.906997	0.599258	0.096962
	C205	C	0.104110	0.408688	0.097683
	C206	C	0.108288	0.599081	0.895615
	C207	C	0.904964	0.408505	0.895699
	C208	C	0.104750	0.905686	0.591117
	C209	C	0.106925	0.106193	0.399006
	C210	C	0.907453	0.101379	0.591291
	C211	C	0.905276	0.901870	0.399184
	C212	C	0.602567	0.103624	0.896247
	C213	C	0.410707	0.100299	0.093764
	C214	C	0.603993	0.901943	0.095281
	C215	C	0.410804	0.900330	0.895005
	Zn216	Zn	0.506894	0.002906	0.745402
	Zn217	Zn	0.507471	0.001750	0.243102
	Zn218	Zn	0.756034	0.504254	-0.004600
	Zn219	Zn	0.256803	0.501840	-0.004516
	Zn220	Zn	0.005879	0.753647	0.496545
	Zn221	Zn	0.006691	0.253442	0.496936
	Zn222	Zn	0.006616	0.504520	0.745783
	Zn223	Zn	0.005988	0.504480	0.248000
	Zn224	Zn	0.507030	0.751363	-0.004185
	Zn225	Zn	0.505940	0.252055	-0.004936
	Zn226	Zn	0.756595	0.002679	0.494151
	Zn227	Zn	0.255512	0.004423	0.493927
	N228	N	0.420596	0.965466	0.672922
	N229	N	0.593330	0.040027	0.672892
	N230	N	0.591043	0.964935	0.316694
	N231	N	0.420648	0.038802	0.313789
	N232	N	0.682803	0.419529	0.957574
	N233	N	0.685093	0.589883	0.032398
	N234	N	0.330704	0.585349	0.958049
	N235	N	0.326765	0.414478	0.032526
	N236	N	0.969165	0.681836	0.410499
	N237	N	0.042395	0.683899	0.583684
	N238	N	0.970413	0.322352	0.585606
	N239	N	0.043748	0.326507	0.411612
	N240	N	0.968579	0.419509	0.673005
	N241	N	0.044280	0.589171	0.672314
	N242	N	0.969372	0.589993	0.318644
	N243	N	0.043458	0.419113	0.319645
	N244	N	0.421207	0.678886	0.958687
	N245	N	0.593871	0.681892	0.032348
	N246	N	0.591945	0.324978	0.958171
	N247	N	0.418768	0.321950	0.031854
	N248	N	0.684300	0.965798	0.407886
	N249	N	0.685201	0.040150	0.579374
	N250	N	0.327968	0.966073	0.579343
	N251	N	0.328504	0.040010	0.407462
	N252	N	0.919731	0.466929	0.175604
	N253	N	0.092727	0.541233	0.175705
	N254	N	0.092003	0.466912	0.817527
	N255	N	0.920530	0.541325	0.817396
	N256	N	0.181008	0.921698	0.456634
	N257	N	0.187503	0.092772	0.531225
	N258	N	0.831516	0.085785	0.456893
	N259	N	0.826178	0.915671	0.532200
	N260	N	0.469491	0.180405	0.908624
	N261	N	0.542441	0.182419	0.082578
	N262	N	0.470772	0.822056	0.082344
	N263	N	0.543927	0.824069	0.909101
	N264	N	0.470308	0.915623	0.171815
	N265	N	0.544717	0.086033	0.169877
	N266	N	0.470153	0.088694	0.816400
	N267	N	0.544402	0.918127	0.817559
	N268	N	0.920107	0.181964	0.458967
	N269	N	0.092486	0.181734	0.533354
	N270	N	0.091198	0.826726	0.458530
	N271	N	0.919594	0.824504	0.533207
	N272	N	0.182951	0.466017	0.910776
	N273	N	0.186425	0.539781	0.082741
	N274	N	0.826999	0.466848	0.082412
	N275	N	0.828913	0.541159	0.910144
	O276	O	0.077516	0.069505	0.001217
	H277	H	0.075120	0.075055	0.008819
	H278	H	0.074747	0.076806	-0.003496
	O279	O	0.468781	0.513574	0.460704
	H280	H	0.461848	0.521192	0.445438
	H281	H	0.468308	0.512171	0.463581
	O282	O	0.428853	0.494967	0.478868
	H283	H	0.426872	0.497932	0.477692
	H284	H	0.437817	0.495426	0.484203
	O285	O	1.073788	-0.038821	0.977242
	H286	H	1.076467	-0.041756	0.980514
	H287	H	1.078317	-0.034344	0.982979
	O288	O	0.985002	0.009039	-0.020703
	H289	H	0.992621	0.002726	-0.023266
	H290	H	0.988176	0.008106	-0.018139
	O291	O	0.505844	0.492771	0.364033
	H292	H	0.499801	0.493108	0.370712
	H293	H	0.507532	0.488878	0.363295
	O294	O	1.017658	0.080858	1.013825
	H295	H	1.015148	0.086193	1.019447
	H296	H	1.023898	0.087757	1.005562
	O297	O	0.016787	0.024316	-0.013880
	H298	H	0.011403	0.021590	-0.019446
	H299	H	0.019603	0.019980	-0.016869
	O300	O	0.654827	0.456775	0.481239
	H301	H	0.652860	0.465618	0.470055
	H302	H	0.660297	0.445943	0.483459
	O303	O	0.312889	0.298891	0.377754
	H304	H	0.312912	0.295764	0.378549
	H305	H	0.320571	0.301622	0.380773
	O306	O	1.001815	0.012264	-0.046659
	H307	H	0.998208	0.014430	-0.040824
	H308	H	1.007413	0.015027	-0.046083
	O309	O	-0.028788	-0.007020	1.072527
	H310	H	-0.021714	-0.007545	1.077361
	H311	H	-0.027814	-0.004845	1.074712
	O312	O	0.999386	0.997214	0.951788
	H313	H	1.000004	0.996260	0.945940
	H314	H	1.000722	0.992161	0.958641
	O315	O	0.576578	0.435873	0.516806
	H316	H	0.576814	0.440163	0.519377
	H317	H	0.584648	0.432904	0.530259
	O318	O	0.555027	0.438585	0.537963
	H319	H	0.541728	0.437687	0.539089
	H320	H	0.556817	0.438385	0.535541
	O321	O	0.101423	1.083399	1.035682
	H322	H	0.107599	1.095312	1.036206
	H323	H	0.091577	1.086073	1.036756
	O324	O	0.480939	0.497879	0.543369
	H325	H	0.477815	0.503976	0.543857
	H326	H	0.495391	0.503093	0.544903
	O327	O	0.522428	0.455966	0.404079
	H328	H	0.508276	0.456182	0.411826
	H329	H	0.518590	0.457404	0.387741
	O330	O	0.551437	0.575009	0.472478
	H331	H	0.554764	0.580386	0.480194
	H332	H	0.546872	0.569098	0.470727
	O333	O	0.545589	0.598048	0.582323
	H334	H	0.550666	0.606115	0.587645
	H335	H	0.552447	0.602930	0.589557
	O336	O	0.458623	0.563518	0.440836
	H337	H	0.450047	0.565417	0.445218
	H338	H	0.456474	0.569579	0.435817
	O339	O	1.066439	0.992149	-0.036606
	H340	H	1.062691	0.991918	-0.034324
	H341	H	1.073417	0.996937	-0.031018
	O342	O	0.456891	0.500330	0.478946
	H343	H	0.461451	0.499014	0.473821
	H344	H	0.452140	0.498813	0.485622
	O345	O	0.434640	0.381782	0.574338
	H346	H	0.437391	0.386788	0.579980
	H347	H	0.435923	0.375730	0.574450
	O348	O	0.010424	0.007884	0.057820
	H349	H	0.003235	0.006188	0.058461
	H350	H	0.007421	0.008901	0.062139
	O351	O	-0.449149	1.447313	1.437428
	H352	H	-0.442475	1.438648	1.431973
	H353	H	-0.447828	1.453577	1.427978
	O354	O	0.537554	0.488455	0.519423
	H355	H	0.538463	0.486857	0.512049
	H356	H	0.533720	0.467679	0.526685
	O357	O	0.010103	0.972949	0.984817
	H358	H	0.010714	0.975266	0.987796
	H359	H	0.011467	0.974671	0.970131
