data_Molecule from HDF5

_cell_length_a		16.349365
_cell_length_b		16.081934
_cell_length_c		16.164818
_cell_angle_alpha	89.950669
_cell_angle_beta	89.714624
_cell_angle_gamma	90.176646
_symmetry_space_group_name_H-M	'P 1'
_symmetry_Int_Tables_number		1

loop_
	_symmetry_equiv_pos_as_xyz
	x,y,z

loop_
	_atom_site_label
	_atom_site_type_symbol
	_atom_site_fract_x
	_atom_site_fract_y
	_atom_site_fract_z
	H0	H	0.398625	0.833363	0.709081
	H1	H	0.593188	0.166014	0.705901
	H2	H	0.594940	0.833685	0.283818
	H3	H	0.401597	0.165121	0.282769
	H4	H	0.716253	0.399137	0.831526
	H5	H	0.714793	0.602132	0.159063
	H6	H	0.285201	0.599762	0.830488
	H7	H	0.281769	0.396212	0.158598
	H8	H	0.834293	0.712799	0.399089
	H9	H	0.161942	0.716040	0.592397
	H10	H	0.835618	0.285797	0.595192
	H11	H	0.162125	0.285392	0.396335
	H12	H	0.836472	0.400174	0.712939
	H13	H	0.162538	0.600429	0.709335
	H14	H	0.835719	0.599634	0.281158
	H15	H	0.162209	0.400914	0.280050
	H16	H	0.403887	0.711134	0.829496
	H17	H	0.593697	0.710673	0.160802
	H18	H	0.596007	0.289491	0.828985
	H19	H	0.403510	0.288012	0.160798
	H20	H	0.711968	0.835297	0.393399
	H21	H	0.712517	0.164070	0.595905
	H22	H	0.281168	0.834694	0.596647
	H23	H	0.284725	0.165132	0.396432
	H24	H	0.900806	0.334214	0.209255
	H25	H	0.095857	0.666061	0.206295
	H26	H	0.096863	0.334270	0.782676
	H27	H	0.904598	0.665563	0.784656
	H28	H	0.214317	0.899045	0.332408
	H29	H	0.213254	0.101886	0.660162
	H30	H	0.782454	0.101164	0.331446
	H31	H	0.780232	0.897994	0.659513
	H32	H	0.335502	0.213527	0.898464
	H33	H	0.663141	0.212074	0.090561
	H34	H	0.335298	0.783587	0.093718
	H35	H	0.662868	0.786375	0.896217
	H36	H	0.335835	0.898687	0.211835
	H37	H	0.662421	0.097477	0.209309
	H38	H	0.334620	0.096471	0.783877
	H39	H	0.660905	0.900002	0.777944
	H40	H	0.902956	0.212611	0.330092
	H41	H	0.092234	0.210421	0.661816
	H42	H	0.092800	0.790667	0.330118
	H43	H	0.899613	0.787707	0.661510
	H44	H	0.212298	0.334248	0.895127
	H45	H	0.215389	0.663361	0.096207
	H46	H	0.784411	0.334636	0.096237
	H47	H	0.787357	0.665076	0.897277
	H48	H	0.414058	0.114546	0.585592
	H49	H	0.590605	0.879729	0.589730
	H50	H	0.584624	0.116889	0.402624
	H51	H	0.411253	0.887384	0.418673
	H52	H	0.598626	0.410224	0.114601
	H53	H	0.596121	0.592146	0.876856
	H54	H	0.405310	0.588064	0.112446
	H55	H	0.410787	0.410822	0.880000
	H56	H	0.115040	0.587726	0.396255
	H57	H	0.886060	0.591507	0.579956
	H58	H	0.118580	0.406324	0.600533
	H59	H	0.879474	0.400034	0.399139
	H60	H	0.117038	0.395832	0.583272
	H61	H	0.882926	0.584384	0.598979
	H62	H	0.118588	0.601981	0.396394
	H63	H	0.884815	0.406384	0.411179
	H64	H	0.406131	0.589224	0.112420
	H65	H	0.594203	0.590010	0.877464
	H66	H	0.587392	0.409190	0.111022
	H67	H	0.406876	0.399679	0.874573
	H68	H	0.594222	0.118295	0.408497
	H69	H	0.585468	0.882133	0.586205
	H70	H	0.394654	0.118944	0.582050
	H71	H	0.387916	0.876630	0.404271
	H72	H	0.893784	0.620628	0.081529
	H73	H	0.078486	0.384652	0.085274
	H74	H	0.100367	0.621938	0.899092
	H75	H	0.899826	0.381008	0.911186
	H76	H	0.094250	0.910482	0.615001
	H77	H	0.093002	0.095921	0.377376
	H78	H	0.904132	0.101455	0.616299
	H79	H	0.900041	0.906453	0.376063
	H80	H	0.612958	0.088066	0.903506
	H81	H	0.383455	0.088111	0.094317
	H82	H	0.614878	0.904515	0.087368
	H83	H	0.382798	0.899892	0.911006
	H84	H	0.615377	0.907689	0.091730
	H85	H	0.380331	0.098992	0.091338
	H86	H	0.617028	0.092645	0.894187
	H87	H	0.384734	0.914162	0.902701
	H88	H	0.893492	0.087487	0.614759
	H89	H	0.095159	0.089869	0.377745
	H90	H	0.087715	0.910351	0.612866
	H91	H	0.903883	0.911344	0.378745
	H92	H	0.088154	0.618520	0.898787
	H93	H	0.099770	0.381211	0.077507
	H94	H	0.906432	0.622200	0.101223
	H95	H	0.904107	0.377740	0.895807
	H96	H	0.402506	0.122149	0.600434
	H97	H	0.590938	0.881727	0.582572
	H98	H	0.595287	0.121197	0.397050
	H99	H	0.413861	0.879019	0.391230
	H100	H	0.593711	0.399642	0.115802
	H101	H	0.593384	0.592467	0.876596
	H102	H	0.404395	0.590287	0.112105
	H103	H	0.398925	0.409776	0.875969
	H104	H	0.112867	0.595951	0.408357
	H105	H	0.878414	0.603820	0.595661
	H106	H	0.111640	0.415843	0.584457
	H107	H	0.883568	0.413644	0.399129
	H108	H	0.916188	0.613330	0.080974
	H109	H	0.094337	0.376310	0.099338
	H110	H	0.094701	0.616955	0.909824
	H111	H	0.914131	0.383811	0.905634
	H112	H	0.089902	0.904485	0.615599
	H113	H	0.089511	0.090433	0.379280
	H114	H	0.909372	0.085825	0.609140
	H115	H	0.905841	0.904006	0.377536
	H116	H	0.616706	0.099978	0.903354
	H117	H	0.384457	0.091797	0.083486
	H118	H	0.616783	0.903136	0.091644
	H119	H	0.378699	0.901028	0.894774
	C120	C	0.375171	0.008646	0.617886
	C121	C	0.618192	0.990472	0.615701
	C122	C	0.619159	0.009036	0.374058
	C123	C	0.376683	0.990656	0.375305
	C124	C	0.621014	0.378973	0.004104
	C125	C	0.621631	0.620673	0.986247
	C126	C	0.377878	0.619210	0.003406
	C127	C	0.376895	0.377153	0.985896
	C128	C	0.007015	0.622808	0.373225
	C129	C	0.990493	0.622442	0.618671
	C130	C	0.008036	0.377441	0.618380
	C131	C	0.990574	0.377791	0.373936
	C132	C	0.876747	0.508980	0.117607
	C133	C	0.119888	0.490511	0.116207
	C134	C	0.121441	0.509092	0.873942
	C135	C	0.878682	0.490267	0.875155
	C136	C	0.119060	0.879784	0.505217
	C137	C	0.119846	0.121089	0.487119
	C138	C	0.875427	0.120958	0.504460
	C139	C	0.874937	0.878336	0.486772
	C140	C	0.507282	0.121730	0.873262
	C141	C	0.490577	0.121325	0.117612
	C142	C	0.507535	0.876594	0.118371
	C143	C	0.489819	0.876964	0.873361
	C144	C	0.377457	0.883453	0.672594
	C145	C	0.615195	0.115818	0.669923
	C146	C	0.615658	0.883756	0.320092
	C147	C	0.380567	0.115685	0.320525
	C148	C	0.677162	0.380044	0.880172
	C149	C	0.676473	0.620529	0.110027
	C150	C	0.323451	0.618546	0.879472
	C151	C	0.320670	0.377534	0.109655
	C152	C	0.883609	0.676152	0.377799
	C153	C	0.113342	0.678092	0.613763
	C154	C	0.884617	0.323086	0.616015
	C155	C	0.113263	0.323039	0.376291
	C156	C	0.885099	0.380358	0.674033
	C157	C	0.113649	0.620227	0.671799
	C158	C	0.884284	0.619376	0.319332
	C159	C	0.113324	0.380562	0.318229
	C160	C	0.382484	0.674064	0.878873
	C161	C	0.616517	0.674743	0.111029
	C162	C	0.617477	0.325418	0.878948
	C163	C	0.381214	0.323751	0.110874
	C164	C	0.673973	0.884476	0.374688
	C165	C	0.674113	0.114820	0.614889
	C166	C	0.319517	0.884002	0.616326
	C167	C	0.322271	0.115613	0.376923
	C168	C	0.880095	0.383823	0.172142
	C169	C	0.116973	0.615870	0.170037
	C170	C	0.117556	0.383739	0.819883
	C171	C	0.883242	0.615831	0.821373
	C172	C	0.175045	0.880445	0.381165
	C173	C	0.174782	0.120649	0.611161
	C174	C	0.821040	0.119963	0.380223
	C175	C	0.818901	0.879175	0.610532
	C176	C	0.384208	0.176023	0.877578
	C177	C	0.614036	0.175311	0.112996
	C178	C	0.384208	0.821307	0.114936
	C179	C	0.613575	0.823290	0.875434
	C180	C	0.384459	0.878774	0.173670
	C181	C	0.613568	0.118239	0.171764
	C182	C	0.383791	0.117903	0.820346
	C183	C	0.612543	0.879744	0.816571
	C184	C	0.880723	0.175571	0.379639
	C185	C	0.114729	0.174620	0.612225
	C186	C	0.114806	0.826468	0.380061
	C187	C	0.878345	0.824200	0.611585
	C188	C	0.175030	0.383693	0.875582
	C189	C	0.176200	0.614538	0.114918
	C190	C	0.821818	0.384165	0.116243
	C191	C	0.824674	0.615438	0.877005
	C192	C	0.397309	0.095844	0.595893
	C193	C	0.595588	0.903519	0.592901
	C194	C	0.597806	0.096321	0.396263
	C195	C	0.398036	0.903477	0.397882
	C196	C	0.599444	0.400273	0.091119
	C197	C	0.600794	0.598211	0.899311
	C198	C	0.399023	0.596168	0.089942
	C199	C	0.398959	0.399952	0.899207
	C200	C	0.093260	0.601580	0.394217
	C201	C	0.904537	0.599917	0.597697
	C202	C	0.093502	0.399404	0.595953
	C203	C	0.904727	0.400036	0.396559
	C204	C	0.898830	0.596193	0.094801
	C205	C	0.097235	0.403222	0.093922
	C206	C	0.100642	0.596526	0.896114
	C207	C	0.899710	0.403211	0.897512
	C208	C	0.097177	0.901946	0.591984
	C209	C	0.098657	0.098746	0.400539
	C210	C	0.896201	0.098321	0.591083
	C211	C	0.896791	0.900667	0.400024
	C212	C	0.593416	0.100100	0.894114
	C213	C	0.404758	0.099367	0.096174
	C214	C	0.593516	0.898702	0.096652
	C215	C	0.404222	0.898636	0.896071
	Zn216	Zn	0.497799	-0.000555	0.744412
	Zn217	Zn	0.498608	-0.000892	0.247552
	Zn218	Zn	0.749857	0.499646	-0.004272
	Zn219	Zn	0.248302	0.498722	-0.005277
	Zn220	Zn	-0.002046	0.751449	0.496079
	Zn221	Zn	-0.001291	0.248571	0.496010
	Zn222	Zn	0.000168	0.499625	0.747681
	Zn223	Zn	-0.000849	0.500115	0.244556
	Zn224	Zn	0.499496	0.747957	-0.005067
	Zn225	Zn	0.499548	0.250775	-0.005193
	Zn226	Zn	0.746167	-0.000655	0.494942
	Zn227	Zn	0.247909	0.000187	0.496203
	N228	N	0.411390	0.961887	0.673831
	N229	N	0.580888	0.037535	0.670291
	N230	N	0.582395	0.962095	0.319579
	N231	N	0.413532	0.037059	0.319370
	N232	N	0.679571	0.412469	0.958871
	N233	N	0.679626	0.587580	0.031474
	N234	N	0.320578	0.584981	0.957900
	N235	N	0.317853	0.410054	0.030873
	N236	N	0.961046	0.678446	0.410781
	N237	N	0.035642	0.679529	0.581469
	N238	N	0.961818	0.321114	0.581781
	N239	N	0.035837	0.321187	0.410241
	N240	N	0.962673	0.413649	0.675490
	N241	N	0.036224	0.586294	0.674824
	N242	N	0.962086	0.586984	0.316239
	N243	N	0.035940	0.414022	0.316727
	N244	N	0.415509	0.674790	0.956916
	N245	N	0.582920	0.674803	0.032999
	N246	N	0.583320	0.324360	0.957073
	N247	N	0.415378	0.323260	0.032975
	N248	N	0.676363	0.963510	0.407785
	N249	N	0.676141	0.035731	0.582057
	N250	N	0.317952	0.962798	0.582961
	N251	N	0.319748	0.036812	0.410210
	N252	N	0.913132	0.462653	0.173453
	N253	N	0.082876	0.537508	0.171110
	N254	N	0.085094	0.462559	0.818596
	N255	N	0.916074	0.537057	0.820028
	N256	N	0.177693	0.912778	0.459973
	N257	N	0.178158	0.088139	0.532345
	N258	N	0.817628	0.086840	0.458717
	N259	N	0.816415	0.911770	0.531723
	N260	N	0.462127	0.178381	0.909623
	N261	N	0.536606	0.177553	0.080162
	N262	N	0.461777	0.819787	0.081257
	N263	N	0.536491	0.821399	0.910130
	N264	N	0.461941	0.912189	0.175857
	N265	N	0.535595	0.085686	0.174964
	N266	N	0.461327	0.084793	0.817615
	N267	N	0.534699	0.912291	0.815107
	N268	N	0.913640	0.176579	0.457907
	N269	N	0.081393	0.175239	0.534105
	N270	N	0.080711	0.825771	0.458189
	N271	N	0.912513	0.823305	0.533675
	N272	N	0.177544	0.462703	0.908571
	N273	N	0.178217	0.535501	0.082355
	N274	N	0.819823	0.463091	0.082965
	N275	N	0.821782	0.536501	0.909737
	O276	O	0.416780	0.525619	0.510975
	H277	H	0.435335	0.526580	0.514684
	H278	H	0.413404	0.523310	0.510217
	O279	O	0.420801	0.544174	0.574220
	H280	H	0.415868	0.549331	0.588755
	H281	H	0.419596	0.549017	0.566972
	O282	O	0.584936	0.519693	0.441537
	H283	H	0.588752	0.509220	0.438142
	H284	H	0.580295	0.511588	0.447303
	O285	O	-0.495397	1.475142	1.543124
	H286	H	-0.482217	1.467682	1.538022
	H287	H	-0.505377	1.473401	1.546007
	O288	O	0.512566	0.465479	0.538066
	H289	H	0.504388	0.483000	0.535384
	H290	H	0.521000	0.464114	0.553146
	O291	O	0.037735	0.000973	0.985402
	H292	H	0.037491	0.001220	0.998735
	H293	H	0.033040	-0.007307	0.978352
	O294	O	0.533584	0.510808	0.401277
	H295	H	0.533409	0.510350	0.392077
	H296	H	0.531273	0.515707	0.391673
	O297	O	0.525070	0.497486	0.505362
	H298	H	0.527538	0.500636	0.505171
	H299	H	0.522121	0.501423	0.503389
	O300	O	0.489101	0.563950	0.461667
	H301	H	0.492482	0.552210	0.460461
	H302	H	0.492304	0.576313	0.460976
	O303	O	0.525338	0.429927	0.478778
	H304	H	0.530003	0.430739	0.486721
	H305	H	0.522365	0.428295	0.470900
	O306	O	1.044466	-0.028125	1.018917
	H307	H	1.046256	-0.026671	1.008775
	H308	H	1.045542	-0.023359	1.020376
	O309	O	0.493246	0.481105	0.476908
	H310	H	0.484503	0.484572	0.479864
	H311	H	0.484651	0.491202	0.474080
	O312	O	0.395667	0.497386	0.461423
	H313	H	0.399023	0.504823	0.455499
	H314	H	0.397016	0.499969	0.453339
	O315	O	0.981294	-0.032202	1.058619
	H316	H	0.986028	-0.027523	1.067502
	H317	H	0.988044	-0.037603	1.054398
	O318	O	0.058170	0.002301	-0.051956
	H319	H	0.060488	-0.005658	-0.056041
	H320	H	0.053949	0.010397	-0.060263
	O321	O	0.550464	0.448148	0.439445
	H322	H	0.547483	0.432245	0.449029
	H323	H	0.551438	0.453505	0.448049
	O324	O	1.034099	-0.043197	0.066413
	H325	H	1.038347	-0.040171	0.080477
	H326	H	1.038393	-0.042970	0.069646
	O327	O	1.028355	1.001698	0.037843
	H328	H	1.031851	0.999682	0.036939
	H329	H	1.029955	1.001815	0.032329
	O330	O	0.533261	0.536702	0.467433
	H331	H	0.543650	0.535020	0.457122
	H332	H	0.540124	0.538882	0.464748
	O333	O	0.608707	0.535984	0.499997
	H334	H	0.612751	0.521711	0.496112
	H335	H	0.614439	0.542427	0.503720
