data_Molecule from HDF5

_cell_length_a		16.043146
_cell_length_b		16.221130
_cell_length_c		16.276450
_cell_angle_alpha	89.245773
_cell_angle_beta	89.951970
_cell_angle_gamma	90.990027
_symmetry_space_group_name_H-M	'P 1'
_symmetry_Int_Tables_number		1

loop_
	_symmetry_equiv_pos_as_xyz
	x,y,z

loop_
	_atom_site_label
	_atom_site_type_symbol
	_atom_site_fract_x
	_atom_site_fract_y
	_atom_site_fract_z
	H0	H	0.397685	0.836003	0.721700
	H1	H	0.608901	0.163194	0.714910
	H2	H	0.602314	0.834783	0.287127
	H3	H	0.404634	0.161095	0.282204
	H4	H	0.713117	0.407055	0.835559
	H5	H	0.720227	0.596728	0.164421
	H6	H	0.294108	0.595520	0.835382
	H7	H	0.284120	0.395050	0.164232
	H8	H	0.836313	0.711457	0.399575
	H9	H	0.168242	0.714207	0.595877
	H10	H	0.838719	0.280269	0.601474
	H11	H	0.169577	0.292155	0.402595
	H12	H	0.837956	0.394768	0.715063
	H13	H	0.168720	0.602235	0.711412
	H14	H	0.837008	0.598166	0.283104
	H15	H	0.167660	0.404036	0.286564
	H16	H	0.402588	0.716816	0.838757
	H17	H	0.605983	0.714089	0.165199
	H18	H	0.599773	0.287915	0.836897
	H19	H	0.398552	0.278569	0.164408
	H20	H	0.712576	0.832945	0.407007
	H21	H	0.721799	0.163080	0.595848
	H22	H	0.284339	0.835273	0.603035
	H23	H	0.295740	0.164019	0.401495
	H24	H	0.897180	0.336297	0.219489
	H25	H	0.107233	0.663766	0.212657
	H26	H	0.102284	0.335562	0.785339
	H27	H	0.906653	0.662660	0.781048
	H28	H	0.215204	0.908290	0.336282
	H29	H	0.220117	0.097633	0.664734
	H30	H	0.793457	0.095447	0.336362
	H31	H	0.787828	0.895385	0.665372
	H32	H	0.335880	0.208760	0.901798
	H33	H	0.667659	0.214329	0.100130
	H34	H	0.338089	0.779250	0.103987
	H35	H	0.668572	0.790056	0.904268
	H36	H	0.336871	0.893734	0.218017
	H37	H	0.668421	0.097998	0.212569
	H38	H	0.338846	0.100726	0.783032
	H39	H	0.668075	0.903423	0.788709
	H40	H	0.904136	0.215674	0.338489
	H41	H	0.107181	0.215862	0.664289
	H42	H	0.102761	0.789150	0.336167
	H43	H	0.900941	0.778054	0.663205
	H44	H	0.211806	0.333130	0.905659
	H45	H	0.219124	0.664305	0.092569
	H46	H	0.784613	0.335439	0.100952
	H47	H	0.794886	0.664770	0.900516
	H48	H	0.417814	0.114616	0.591569
	H49	H	0.595958	0.880404	0.597897
	H50	H	0.594759	0.114752	0.404916
	H51	H	0.399734	0.879677	0.415299
	H52	H	0.597888	0.402227	0.119750
	H53	H	0.609739	0.597674	0.879638
	H54	H	0.407644	0.587909	0.118890
	H55	H	0.405770	0.396836	0.881267
	H56	H	0.116206	0.581390	0.409845
	H57	H	0.881375	0.592544	0.595037
	H58	H	0.120398	0.413387	0.592960
	H59	H	0.884160	0.400994	0.418772
	H60	H	0.124156	0.406796	0.598350
	H61	H	0.885390	0.587916	0.586126
	H62	H	0.126486	0.598422	0.392236
	H63	H	0.886804	0.415964	0.408370
	H64	H	0.413495	0.585259	0.116660
	H65	H	0.590940	0.584550	0.889737
	H66	H	0.593398	0.410943	0.116044
	H67	H	0.403531	0.408160	0.883278
	H68	H	0.599446	0.115823	0.409436
	H69	H	0.590826	0.880977	0.602265
	H70	H	0.412127	0.116892	0.591872
	H71	H	0.409566	0.877920	0.400962
	H72	H	0.916592	0.615539	0.088402
	H73	H	0.096822	0.382564	0.088412
	H74	H	0.100073	0.616526	0.905500
	H75	H	0.907786	0.381932	0.910840
	H76	H	0.087017	0.904013	0.615631
	H77	H	0.094444	0.098320	0.385045
	H78	H	0.915929	0.079292	0.614189
	H79	H	0.911795	0.907375	0.384793
	H80	H	0.618530	0.085095	0.907439
	H81	H	0.382974	0.082100	0.100576
	H82	H	0.622123	0.905910	0.097045
	H83	H	0.383447	0.904111	0.909449
	H84	H	0.621173	0.907571	0.094502
	H85	H	0.380603	0.094559	0.094862
	H86	H	0.626553	0.100263	0.900654
	H87	H	0.384266	0.905734	0.915603
	H88	H	0.920580	0.097125	0.618657
	H89	H	0.101887	0.101972	0.381331
	H90	H	0.096494	0.899874	0.619830
	H91	H	0.907828	0.901150	0.381952
	H92	H	0.099292	0.618187	0.901180
	H93	H	0.094552	0.378654	0.103872
	H94	H	0.910315	0.617418	0.090498
	H95	H	0.904453	0.380269	0.905955
	H96	H	0.415171	0.116815	0.595970
	H97	H	0.590636	0.883915	0.595459
	H98	H	0.601083	0.116617	0.403271
	H99	H	0.417831	0.884764	0.415473
	H100	H	0.588391	0.401960	0.117120
	H101	H	0.588659	0.607690	0.883603
	H102	H	0.412465	0.591866	0.118514
	H103	H	0.413710	0.403626	0.885513
	H104	H	0.121128	0.606014	0.416006
	H105	H	0.885525	0.582062	0.595093
	H106	H	0.122023	0.405796	0.588546
	H107	H	0.879219	0.400361	0.400168
	H108	H	0.915979	0.616804	0.094642
	H109	H	0.082572	0.385103	0.095481
	H110	H	0.096944	0.615803	0.903557
	H111	H	0.910064	0.381542	0.905207
	H112	H	0.095595	0.911228	0.616261
	H113	H	0.101076	0.093561	0.384177
	H114	H	0.902637	0.090764	0.621516
	H115	H	0.904413	0.907248	0.382436
	H116	H	0.620570	0.099486	0.918551
	H117	H	0.385526	0.085275	0.086996
	H118	H	0.621608	0.909143	0.096348
	H119	H	0.384764	0.910668	0.911052
	C120	C	0.382005	0.007953	0.624118
	C121	C	0.624986	0.990253	0.624538
	C122	C	0.624818	0.006797	0.379557
	C123	C	0.382310	0.989387	0.380282
	C124	C	0.622220	0.378328	0.009396
	C125	C	0.626517	0.623592	0.992548
	C126	C	0.382648	0.618683	0.009839
	C127	C	0.378033	0.373488	0.991925
	C128	C	0.011426	0.622600	0.376897
	C129	C	0.993793	0.618675	0.619790
	C130	C	0.012814	0.376824	0.622613
	C131	C	0.993500	0.379164	0.380316
	C132	C	0.881724	0.508584	0.122151
	C133	C	0.123885	0.490758	0.121828
	C134	C	0.125296	0.507699	0.877097
	C135	C	0.881225	0.490312	0.877667
	C136	C	0.122789	0.879085	0.509051
	C137	C	0.128063	0.124493	0.492121
	C138	C	0.883729	0.118880	0.510000
	C139	C	0.879248	0.874700	0.491599
	C140	C	0.511880	0.121711	0.879427
	C141	C	0.493184	0.118156	0.122452
	C142	C	0.511888	0.875859	0.125319
	C143	C	0.493601	0.879949	0.882893
	C144	C	0.379564	0.884671	0.682284
	C145	C	0.627141	0.114071	0.677503
	C146	C	0.622132	0.883719	0.325010
	C147	C	0.385160	0.112629	0.321998
	C148	C	0.676267	0.384336	0.884964
	C149	C	0.682395	0.618571	0.115640
	C150	C	0.329933	0.616333	0.885296
	C151	C	0.321821	0.374950	0.115232
	C152	C	0.886290	0.675241	0.379097
	C153	C	0.118740	0.676031	0.616627
	C154	C	0.888181	0.318912	0.620931
	C155	C	0.119102	0.327724	0.382499
	C156	C	0.887938	0.375740	0.677813
	C157	C	0.118964	0.619855	0.674061
	C158	C	0.886469	0.618931	0.321147
	C159	C	0.118226	0.383401	0.324667
	C160	C	0.383795	0.677089	0.887211
	C161	C	0.625730	0.677280	0.115882
	C162	C	0.619971	0.325004	0.885715
	C163	C	0.378923	0.317133	0.115292
	C164	C	0.676699	0.882558	0.385027
	C165	C	0.683148	0.113979	0.618327
	C166	C	0.323087	0.884401	0.623348
	C167	C	0.330977	0.114215	0.381465
	C168	C	0.879064	0.385152	0.180310
	C169	C	0.125846	0.614511	0.175105
	C170	C	0.122254	0.384350	0.822984
	C171	C	0.885317	0.613673	0.819976
	C172	C	0.177848	0.885761	0.385199
	C173	C	0.182777	0.119249	0.615639
	C174	C	0.829658	0.116439	0.385993
	C175	C	0.824623	0.875463	0.615694
	C176	C	0.386271	0.173469	0.881464
	C177	C	0.617970	0.175569	0.119787
	C178	C	0.387422	0.817654	0.124179
	C179	C	0.618948	0.826786	0.884366
	C180	C	0.387053	0.874536	0.180916
	C181	C	0.618493	0.117681	0.176029
	C182	C	0.387751	0.119676	0.822166
	C183	C	0.618704	0.883254	0.827036
	C184	C	0.884977	0.175855	0.386927
	C185	C	0.126352	0.178098	0.615348
	C186	C	0.121594	0.826541	0.385138
	C187	C	0.880783	0.817045	0.614610
	C188	C	0.176661	0.383113	0.883064
	C189	C	0.181671	0.614655	0.115374
	C190	C	0.823387	0.384577	0.121092
	C191	C	0.829909	0.614906	0.879507
	C192	C	0.407450	0.093694	0.600180
	C193	C	0.599951	0.904063	0.604574
	C194	C	0.604401	0.093358	0.399814
	C195	C	0.402977	0.903211	0.403732
	C196	C	0.599987	0.398945	0.095253
	C197	C	0.603337	0.602884	0.906576
	C198	C	0.404904	0.595164	0.095997
	C199	C	0.400964	0.396065	0.905652
	C200	C	0.098672	0.601513	0.399290
	C201	C	0.906569	0.594467	0.598334
	C202	C	0.099869	0.401469	0.600027
	C203	C	0.906044	0.399607	0.402603
	C204	C	0.906891	0.594179	0.098208
	C205	C	0.098614	0.404353	0.101872
	C206	C	0.104795	0.594487	0.897256
	C207	C	0.901541	0.403695	0.900675
	C208	C	0.099725	0.899197	0.595086
	C209	C	0.105669	0.104064	0.405834
	C210	C	0.906420	0.095819	0.595951
	C211	C	0.901564	0.898385	0.405334
	C212	C	0.599148	0.101108	0.902171
	C213	C	0.405551	0.094209	0.100570
	C214	C	0.598996	0.900340	0.102720
	C215	C	0.406826	0.900703	0.905412
	Zn216	Zn	0.502844	-0.000104	0.753544
	Zn217	Zn	0.502597	-0.002396	0.251318
	Zn218	Zn	0.753079	0.500090	0.000235
	Zn219	Zn	0.252764	0.497878	-0.000198
	Zn220	Zn	0.002187	0.747963	0.499696
	Zn221	Zn	0.003918	0.250513	0.500907
	Zn222	Zn	0.003724	0.498639	0.748777
	Zn223	Zn	0.002414	0.499987	0.251408
	Zn224	Zn	0.502948	0.750245	0.002372
	Zn225	Zn	0.501562	0.246809	0.001322
	Zn226	Zn	0.753235	-0.002147	0.501306
	Zn227	Zn	0.254273	-0.000280	0.501092
	N228	N	0.415389	0.962528	0.682887
	N229	N	0.591725	0.036097	0.681636
	N230	N	0.590610	0.962107	0.321407
	N231	N	0.416257	0.034151	0.320894
	N232	N	0.677811	0.416948	0.962744
	N233	N	0.683294	0.586422	0.037856
	N234	N	0.329008	0.580643	0.962577
	N235	N	0.321304	0.409441	0.037440
	N236	N	0.964864	0.677580	0.412919
	N237	N	0.039838	0.675423	0.583710
	N238	N	0.967104	0.319222	0.587528
	N239	N	0.040436	0.324709	0.416219
	N240	N	0.966509	0.411077	0.679039
	N241	N	0.040208	0.584675	0.676066
	N242	N	0.965597	0.587143	0.319509
	N243	N	0.039072	0.414911	0.323136
	N244	N	0.415937	0.678618	0.965685
	N245	N	0.591610	0.680559	0.038223
	N246	N	0.587260	0.321005	0.963876
	N247	N	0.413025	0.316038	0.037693
	N248	N	0.678549	0.960169	0.418156
	N249	N	0.682235	0.036029	0.586182
	N250	N	0.324537	0.961936	0.587823
	N251	N	0.328991	0.036605	0.417157
	N252	N	0.914782	0.463104	0.181008
	N253	N	0.090567	0.536447	0.179260
	N254	N	0.090994	0.463009	0.819078
	N255	N	0.916470	0.535101	0.818567
	N256	N	0.178768	0.917770	0.463174
	N257	N	0.184151	0.086774	0.537982
	N258	N	0.828847	0.081412	0.463554
	N259	N	0.823229	0.910313	0.538077
	N260	N	0.464566	0.175181	0.916333
	N261	N	0.538772	0.176080	0.087409
	N262	N	0.466053	0.818156	0.090482
	N263	N	0.540271	0.824325	0.918324
	N264	N	0.465656	0.910067	0.181848
	N265	N	0.539693	0.082544	0.177658
	N266	N	0.466913	0.088291	0.820790
	N267	N	0.539975	0.915465	0.825979
	N268	N	0.917772	0.177609	0.464999
	N269	N	0.093106	0.181571	0.537396
	N270	N	0.088008	0.822210	0.463035
	N271	N	0.913488	0.815994	0.536383
	N272	N	0.178687	0.460691	0.915995
	N273	N	0.180578	0.536590	0.083029
	N274	N	0.824529	0.462195	0.085677
	N275	N	0.826928	0.537047	0.914374
	O276	O	0.569685	0.401038	0.350915
	H277	H	0.558887	0.395419	0.332675
	H278	H	0.571593	0.393903	0.353478
	O279	O	0.483335	0.568312	0.399624
	H280	H	0.475983	0.572798	0.396517
	H281	H	0.472434	0.574593	0.402074
	O282	O	0.920897	0.946149	0.006763
	H283	H	0.925617	0.954699	0.010973
	H284	H	0.922837	0.952959	0.010936
	O285	O	0.878507	-0.058639	1.009327
	H286	H	0.882665	-0.050472	0.998130
	H287	H	0.884742	-0.053414	0.997792
	O288	O	0.641758	0.454285	0.520672
	H289	H	0.638916	0.445503	0.514428
	H290	H	0.654042	0.457256	0.510196
	O291	O	0.450635	0.424227	0.503140
	H292	H	0.452411	0.419519	0.505510
	H293	H	0.444046	0.422339	0.489972
	O294	O	0.531919	0.536398	0.548354
	H295	H	0.533811	0.536138	0.543099
	H296	H	0.534158	0.551940	0.548569
	O297	O	-0.024440	-0.058912	1.104134
	H298	H	-0.025747	-0.064161	1.094711
	H299	H	-0.038493	-0.066018	1.107888
	O300	O	0.343166	0.535918	0.442366
	H301	H	0.345235	0.546898	0.454907
	H302	H	0.331049	0.527988	0.430812
	O303	O	0.864246	1.158801	-0.059956
	H304	H	0.862648	1.151113	-0.069117
	H305	H	0.856722	1.171754	-0.061745
	O306	O	-0.432919	1.540047	0.516358
	H307	H	-0.446605	1.540677	0.519693
	H308	H	-0.434144	1.538004	0.499489
	O309	O	0.536783	0.594588	0.474591
	H310	H	0.527265	0.601278	0.465432
	H311	H	0.530763	0.592776	0.464301
	O312	O	0.069566	-0.079066	-0.074990
	H313	H	0.072140	-0.081252	-0.061529
	H314	H	0.062449	-0.080616	-0.072752
	O315	O	1.027263	-0.029612	-0.094525
	H316	H	1.030471	-0.036267	-0.088856
	H317	H	1.020850	-0.016974	-0.089026
	O318	O	1.059149	1.014445	0.978321
	H319	H	1.070309	1.019927	0.980945
	H320	H	1.058197	1.013262	0.978999
	O321	O	-0.030051	-0.085119	1.086939
	H322	H	-0.040940	-0.093500	1.096070
	H323	H	-0.019885	-0.079765	1.080013
	O324	O	0.417293	0.398301	0.537716
	H325	H	0.423280	0.405575	0.539438
	H326	H	0.409972	0.386696	0.544578
	O327	O	0.041000	0.050713	0.000168
	H328	H	0.038215	0.033052	0.011898
	H329	H	0.043958	0.063692	-0.007653
	O330	O	0.457412	0.502029	0.586931
	H331	H	0.450691	0.498065	0.589517
	H332	H	0.465672	0.497614	0.582750
	O333	O	0.024262	1.011505	0.841213
	H334	H	0.029374	1.002549	0.830325
	H335	H	0.018506	1.026038	0.832488
	O336	O	-0.006436	0.073611	-0.032510
	H337	H	-0.003530	0.069162	-0.025316
	H338	H	-0.007646	0.055884	-0.024922
	O339	O	0.458410	0.443411	0.502929
	H340	H	0.456538	0.439604	0.513426
	H341	H	0.461618	0.457136	0.505861
	O342	O	0.955574	1.115096	0.969057
	H343	H	0.949064	1.101411	0.965131
	H344	H	0.952922	1.129959	0.956410
	O345	O	1.063542	0.999609	0.041998
	H346	H	1.064801	1.002236	0.060780
	H347	H	1.068154	1.008422	0.036996
	O348	O	0.507107	0.548032	0.457823
	H349	H	0.511439	0.540727	0.470566
	H350	H	0.492772	0.538783	0.464846
	O351	O	0.536860	0.541417	0.531822
	H352	H	0.542473	0.544065	0.525597
	H353	H	0.551760	0.545063	0.545748
	O354	O	0.615133	0.506457	0.610267
	H355	H	0.621337	0.529579	0.606142
	H356	H	0.615530	0.511370	0.606446
	O357	O	1.021355	0.135758	1.057580
	H358	H	1.024803	0.137539	1.050419
	H359	H	1.018897	0.139742	1.042844
	O360	O	0.388874	0.452620	0.533854
	H361	H	0.387768	0.444013	0.552554
	H362	H	0.396813	0.441093	0.537633
	O363	O	0.688555	0.165395	0.689339
	H364	H	0.694580	0.174904	0.688996
	H365	H	0.683040	0.169633	0.693051
	O366	O	0.988608	1.026207	1.084623
	H367	H	0.980013	1.030723	1.083377
	H368	H	0.988252	1.026345	1.070366
	O369	O	0.977776	-0.060599	1.097914
	H370	H	0.977741	-0.063125	1.114248
	H371	H	0.965041	-0.060435	1.097821
	O372	O	-0.022682	-0.043320	-0.044332
	H373	H	-0.026586	-0.059077	-0.042962
	H374	H	-0.007751	-0.036523	-0.038805
	O375	O	1.066327	-0.026319	0.030752
	H376	H	1.062188	-0.022659	0.041621
	H377	H	1.060469	-0.021290	0.026932
	O378	O	0.549054	0.601813	0.549351
	H379	H	0.549209	0.599978	0.555856
	H380	H	0.553149	0.596702	0.547611
	O381	O	0.534715	0.469694	0.524384
	H382	H	0.535414	0.477617	0.518062
	H383	H	0.546065	0.475538	0.539908
