data_Molecule from HDF5

_cell_length_a		16.196277
_cell_length_b		16.122896
_cell_length_c		16.183674
_cell_angle_alpha	90.630710
_cell_angle_beta	89.642589
_cell_angle_gamma	89.157031
_symmetry_space_group_name_H-M	'P 1'
_symmetry_Int_Tables_number		1

loop_
	_symmetry_equiv_pos_as_xyz
	x,y,z

loop_
	_atom_site_label
	_atom_site_type_symbol
	_atom_site_fract_x
	_atom_site_fract_y
	_atom_site_fract_z
	H0	H	0.391764	0.836592	0.707698
	H1	H	0.585219	0.166751	0.707615
	H2	H	0.595311	0.837694	0.275346
	H3	H	0.390452	0.167915	0.283032
	H4	H	0.709786	0.397097	0.828715
	H5	H	0.702180	0.600067	0.157356
	H6	H	0.274925	0.602218	0.827778
	H7	H	0.277328	0.406473	0.156616
	H8	H	0.827729	0.715807	0.395709
	H9	H	0.157401	0.711832	0.590770
	H10	H	0.825305	0.290671	0.588809
	H11	H	0.155205	0.280810	0.389137
	H12	H	0.826465	0.404560	0.707593
	H13	H	0.156455	0.597380	0.706292
	H14	H	0.826210	0.599202	0.282501
	H15	H	0.154631	0.395155	0.273802
	H16	H	0.393959	0.714987	0.827165
	H17	H	0.588390	0.715238	0.157063
	H18	H	0.593539	0.283546	0.828498
	H19	H	0.395124	0.294208	0.158237
	H20	H	0.707299	0.835950	0.391648
	H21	H	0.701030	0.166400	0.592985
	H22	H	0.281063	0.834493	0.589374
	H23	H	0.273412	0.165684	0.396643
	H24	H	0.893567	0.335077	0.204342
	H25	H	0.087287	0.665156	0.209228
	H26	H	0.094539	0.336448	0.775834
	H27	H	0.890434	0.666502	0.781210
	H28	H	0.210631	0.894707	0.328678
	H29	H	0.200029	0.098828	0.657803
	H30	H	0.774435	0.099956	0.327760
	H31	H	0.775911	0.903964	0.657028
	H32	H	0.327198	0.216762	0.898370
	H33	H	0.656522	0.215607	0.092912
	H34	H	0.327003	0.791587	0.091026
	H35	H	0.656123	0.782949	0.890542
	H36	H	0.327780	0.907208	0.207274
	H37	H	0.655868	0.101459	0.208718
	H38	H	0.326871	0.103083	0.782571
	H39	H	0.654785	0.897066	0.774634
	H40	H	0.892150	0.212878	0.326372
	H41	H	0.087686	0.215071	0.655634
	H42	H	0.093631	0.781643	0.328295
	H43	H	0.893886	0.789932	0.658627
	H44	H	0.209276	0.337100	0.890173
	H45	H	0.200772	0.666613	0.092822
	H46	H	0.778361	0.335711	0.091493
	H47	H	0.775539	0.666241	0.896307
	H48	H	0.386964	0.123556	0.592862
	H49	H	0.586584	0.881460	0.588211
	H50	H	0.583710	0.121285	0.397145
	H51	H	0.395115	0.879698	0.391548
	H52	H	0.575644	0.421913	0.103784
	H53	H	0.581327	0.597607	0.873193
	H54	H	0.377817	0.594479	0.114656
	H55	H	0.396282	0.402847	0.871521
	H56	H	0.110258	0.589094	0.398077
	H57	H	0.869223	0.603090	0.597074
	H58	H	0.101027	0.414457	0.566520
	H59	H	0.879716	0.416021	0.411801
	H60	H	0.110503	0.416574	0.599854
	H61	H	0.875529	0.601695	0.576362
	H62	H	0.109778	0.589041	0.398370
	H63	H	0.870634	0.415015	0.383128
	H64	H	0.405437	0.584059	0.103670
	H65	H	0.591710	0.590802	0.872785
	H66	H	0.578060	0.393999	0.113599
	H67	H	0.397650	0.413688	0.875530
	H68	H	0.578746	0.118631	0.402228
	H69	H	0.580748	0.883278	0.584357
	H70	H	0.401471	0.118788	0.594106
	H71	H	0.410712	0.884816	0.395370
	H72	H	0.894412	0.617377	0.084445
	H73	H	0.084411	0.384788	0.077679
	H74	H	0.092821	0.620384	0.908443
	H75	H	0.898252	0.382022	0.899288
	H76	H	0.088442	0.910814	0.609906
	H77	H	0.076318	0.090464	0.376283
	H78	H	0.895449	0.078360	0.604597
	H79	H	0.903277	0.905148	0.375330
	H80	H	0.612952	0.092778	0.889930
	H81	H	0.375451	0.095820	0.087370
	H82	H	0.609220	0.910468	0.087602
	H83	H	0.377393	0.921334	0.903568
	H84	H	0.611841	0.904002	0.084873
	H85	H	0.373101	0.098044	0.092806
	H86	H	0.610099	0.097968	0.906315
	H87	H	0.369592	0.906817	0.889443
	H88	H	0.910724	0.105498	0.608179
	H89	H	0.088972	0.094623	0.370051
	H90	H	0.080133	0.906036	0.609557
	H91	H	0.897443	0.904779	0.374204
	H92	H	0.083977	0.624296	0.887375
	H93	H	0.090599	0.380717	0.082585
	H94	H	0.893726	0.620668	0.090118
	H95	H	0.903690	0.382594	0.895339
	H96	H	0.394650	0.116462	0.580737
	H97	H	0.586870	0.882761	0.581126
	H98	H	0.585484	0.120859	0.405028
	H99	H	0.398853	0.885125	0.407564
	H100	H	0.601628	0.412489	0.114452
	H101	H	0.581343	0.585057	0.876559
	H102	H	0.401681	0.614048	0.113176
	H103	H	0.406908	0.406954	0.874845
	H104	H	0.109754	0.588832	0.398075
	H105	H	0.877070	0.583968	0.589402
	H106	H	0.114138	0.386034	0.581973
	H107	H	0.868740	0.390475	0.399537
	H108	H	0.899947	0.617670	0.088671
	H109	H	0.082455	0.382738	0.085894
	H110	H	0.071178	0.615734	0.903420
	H111	H	0.903321	0.384417	0.902505
	H112	H	0.089498	0.902874	0.612314
	H113	H	0.087450	0.080689	0.375301
	H114	H	0.880665	0.103383	0.615546
	H115	H	0.900114	0.910847	0.375827
	H116	H	0.606386	0.081772	0.902204
	H117	H	0.372841	0.103181	0.087944
	H118	H	0.608810	0.908849	0.080841
	H119	H	0.374424	0.901324	0.910027
	C120	C	0.367704	0.010200	0.616228
	C121	C	0.611708	0.992079	0.614358
	C122	C	0.613079	0.010811	0.371271
	C123	C	0.370826	0.992692	0.371447
	C124	C	0.614947	0.378525	0.001669
	C125	C	0.612268	0.620760	0.983364
	C126	C	0.367763	0.625369	0.001227
	C127	C	0.371157	0.381178	0.983199
	C128	C	0.000867	0.619934	0.371167
	C129	C	0.983042	0.623055	0.615096
	C130	C	-0.000452	0.378840	0.612422
	C131	C	0.982176	0.376358	0.368446
	C132	C	0.869019	0.509175	0.114427
	C133	C	0.112265	0.492089	0.112505
	C134	C	0.113646	0.510846	0.870078
	C135	C	0.870713	0.492328	0.871475
	C136	C	0.115660	0.876465	0.501664
	C137	C	0.111382	0.119200	0.482888
	C138	C	0.867462	0.123306	0.500503
	C139	C	0.870810	0.879667	0.484281
	C140	C	0.500708	0.121401	0.872917
	C141	C	0.483115	0.125846	0.116869
	C142	C	0.500969	0.881417	0.113670
	C143	C	0.482708	0.878886	0.870589
	C144	C	0.371584	0.885513	0.669936
	C145	C	0.606611	0.117064	0.669808
	C146	C	0.613595	0.886629	0.314315
	C147	C	0.370956	0.117778	0.319114
	C148	C	0.671713	0.377643	0.878127
	C149	C	0.665678	0.620138	0.107876
	C150	C	0.313256	0.622175	0.876823
	C151	C	0.315430	0.385570	0.107518
	C152	C	0.876803	0.677099	0.375193
	C153	C	0.107893	0.674914	0.611158
	C154	C	0.874993	0.326812	0.609946
	C155	C	0.105947	0.319196	0.369461
	C156	C	0.875566	0.383475	0.668993
	C157	C	0.107366	0.618265	0.668869
	C158	C	0.876081	0.619164	0.318795
	C159	C	0.105488	0.376125	0.311979
	C160	C	0.371973	0.678709	0.876783
	C161	C	0.608898	0.677139	0.107774
	C162	C	0.613939	0.321027	0.877985
	C163	C	0.373963	0.329703	0.108339
	C164	C	0.669566	0.885824	0.371907
	C165	C	0.664264	0.116837	0.612822
	C166	C	0.315980	0.884739	0.611332
	C167	C	0.312698	0.116830	0.375680
	C168	C	0.872627	0.384733	0.167966
	C169	C	0.107648	0.616067	0.170273
	C170	C	0.114211	0.386022	0.813498
	C171	C	0.870598	0.616822	0.817632
	C172	C	0.172344	0.875932	0.377925
	C173	C	0.164173	0.118634	0.607676
	C174	C	0.812630	0.120157	0.376765
	C175	C	0.814547	0.882996	0.608043
	C176	C	0.376367	0.178378	0.877487
	C177	C	0.607106	0.178914	0.113448
	C178	C	0.376584	0.828557	0.111265
	C179	C	0.606587	0.821283	0.870689
	C180	C	0.376989	0.885860	0.169315
	C181	C	0.606858	0.122082	0.170971
	C182	C	0.376015	0.121686	0.819787
	C183	C	0.605912	0.878290	0.813037
	C184	C	0.871157	0.176276	0.375952
	C185	C	0.108264	0.176542	0.606727
	C186	C	0.114149	0.819880	0.377642
	C187	C	0.873257	0.826546	0.608775
	C188	C	0.171271	0.386471	0.870222
	C189	C	0.164255	0.617079	0.112149
	C190	C	0.815176	0.385038	0.111577
	C191	C	0.813427	0.616577	0.875160
	C192	C	0.388222	0.097206	0.595460
	C193	C	0.590964	0.905136	0.591377
	C194	C	0.589574	0.097719	0.394526
	C195	C	0.394594	0.905757	0.392138
	C196	C	0.591761	0.402448	0.088376
	C197	C	0.591096	0.597714	0.896531
	C198	C	0.388627	0.603907	0.087884
	C199	C	0.393601	0.401792	0.896463
	C200	C	0.087617	0.596019	0.391993
	C201	C	0.896448	0.602469	0.593975
	C202	C	0.086217	0.399588	0.589647
	C203	C	0.895342	0.400177	0.391279
	C204	C	0.889939	0.596028	0.093783
	C205	C	0.092010	0.405194	0.088836
	C206	C	0.089648	0.597720	0.892967
	C207	C	0.894675	0.405466	0.892620
	C208	C	0.092774	0.899742	0.588100
	C209	C	0.090510	0.095584	0.396343
	C210	C	0.889147	0.102062	0.587125
	C211	C	0.893443	0.900760	0.397815
	C212	C	0.587374	0.097799	0.893518
	C213	C	0.396426	0.105162	0.095781
	C214	C	0.587525	0.901750	0.091052
	C215	C	0.396290	0.902825	0.894087
	Zn216	Zn	0.490131	0.001186	0.742988
	Zn217	Zn	0.492641	0.002922	0.243322
	Zn218	Zn	0.741393	0.500745	-0.007025
	Zn219	Zn	0.241199	0.502091	-0.008420
	Zn220	Zn	-0.007208	0.749624	0.492610
	Zn221	Zn	-0.009205	0.248979	0.490871
	Zn222	Zn	-0.007843	0.500986	0.742763
	Zn223	Zn	-0.009063	0.499285	0.241810
	Zn224	Zn	0.492003	0.751058	-0.007893
	Zn225	Zn	0.492267	0.251518	-0.006859
	Zn226	Zn	0.739971	0.000628	0.492352
	Zn227	Zn	0.241212	-0.000087	0.493043
	N228	N	0.402845	0.964384	0.673232
	N229	N	0.574686	0.038487	0.670687
	N230	N	0.579356	0.965400	0.313539
	N231	N	0.406248	0.039445	0.316393
	N232	N	0.672718	0.412467	0.956152
	N233	N	0.668078	0.585977	0.029435
	N234	N	0.310318	0.589984	0.955286
	N235	N	0.313421	0.416740	0.028640
	N236	N	0.955403	0.677754	0.407007
	N237	N	0.029677	0.678146	0.578706
	N238	N	0.953094	0.323940	0.575446
	N239	N	0.028056	0.319358	0.403976
	N240	N	0.954071	0.415038	0.670777
	N241	N	0.028827	0.586568	0.671582
	N242	N	0.954263	0.584244	0.316028
	N243	N	0.027426	0.411121	0.311398
	N244	N	0.405138	0.680739	0.955041
	N245	N	0.576519	0.677922	0.029269
	N246	N	0.579395	0.321570	0.955971
	N247	N	0.407959	0.326803	0.030258
	N248	N	0.669112	0.963996	0.406857
	N249	N	0.667569	0.038055	0.578926
	N250	N	0.313438	0.963171	0.578500
	N251	N	0.312404	0.038044	0.407468
	N252	N	0.905013	0.463065	0.170236
	N253	N	0.075963	0.537281	0.170615
	N254	N	0.079021	0.464448	0.813303
	N255	N	0.905372	0.538374	0.814927
	N256	N	0.173544	0.910442	0.456205
	N257	N	0.166169	0.083615	0.529705
	N258	N	0.810221	0.087970	0.455155
	N259	N	0.812753	0.915215	0.529688
	N260	N	0.454951	0.178411	0.909717
	N261	N	0.529041	0.181318	0.080217
	N262	N	0.454746	0.825296	0.077517
	N263	N	0.528993	0.821503	0.905831
	N264	N	0.455365	0.917839	0.170983
	N265	N	0.528664	0.090152	0.173478
	N266	N	0.454075	0.086792	0.816739
	N267	N	0.527747	0.913264	0.812782
	N268	N	0.904557	0.178570	0.454059
	N269	N	0.076154	0.177242	0.528188
	N270	N	0.079598	0.819950	0.455526
	N271	N	0.907846	0.824250	0.530680
	N272	N	0.170940	0.464967	0.904637
	N273	N	0.167229	0.539039	0.076934
	N274	N	0.812576	0.463541	0.079079
	N275	N	0.813568	0.538098	0.907811
	O276	O	-0.066806	-0.072356	-0.050923
	H277	H	-0.065479	-0.049115	-0.049573
	H278	H	-0.074563	-0.069141	-0.046461
	O279	O	0.487024	0.515138	0.473161
	H280	H	0.483560	0.524157	0.475580
	H281	H	0.486322	0.514073	0.475365
	O282	O	0.580685	0.480005	0.440506
	H283	H	0.593214	0.471424	0.440151
	H284	H	0.578315	0.479284	0.439525
	O285	O	0.067655	0.885398	0.916845
	H286	H	0.063691	0.880878	0.920316
	H287	H	0.071563	0.873182	0.908982
	O288	O	0.514096	0.503056	0.478384
	H289	H	0.515585	0.495530	0.480181
	H290	H	0.520403	0.512559	0.481074
	O291	O	1.036292	1.148200	1.090134
	H292	H	1.041166	1.154206	1.091153
	H293	H	1.044026	1.139791	1.100503
	O294	O	1.099485	1.027698	1.008892
	H295	H	1.090641	1.035915	1.023705
	H296	H	1.115880	1.026471	0.999974
	O297	O	0.985907	0.039306	0.989075
	H298	H	0.985582	0.037653	0.989632
	H299	H	0.974522	0.046334	0.986575
	O300	O	0.511183	0.603661	0.563993
	H301	H	0.500019	0.613715	0.555004
	H302	H	0.508697	0.597138	0.550263
	O303	O	1.126197	-0.056746	-0.063344
	H304	H	1.123448	-0.049994	-0.063380
	H305	H	1.113516	-0.063166	-0.075935
	O306	O	0.064465	1.084623	1.037347
	H307	H	0.051723	1.072398	1.041366
	H308	H	0.069351	1.088762	1.041256
	O309	O	0.893077	0.944625	1.046669
	H310	H	0.891080	0.934946	1.048091
	H311	H	0.902759	0.938487	1.043105
	O312	O	0.969181	-0.061484	0.921877
	H313	H	0.973489	-0.065702	0.925296
	H314	H	0.985546	-0.053535	0.910733
	O315	O	0.453530	0.460189	0.523975
	H316	H	0.451190	0.458247	0.522692
	H317	H	0.464150	0.455559	0.529880
	O318	O	0.526055	0.519596	0.492564
	H319	H	0.525922	0.519608	0.490633
	H320	H	0.529741	0.514452	0.492412
	O321	O	0.852432	0.855468	1.083462
	H322	H	0.851489	0.846535	1.081879
	H323	H	0.856546	0.861026	1.087960
	O324	O	0.896153	0.104260	-0.122353
	H325	H	0.890622	0.121543	-0.126030
	H326	H	0.900958	0.110052	-0.112547
	O327	O	0.514292	0.525755	0.420461
	H328	H	0.515627	0.521756	0.420041
	H329	H	0.516461	0.529212	0.431316
	O330	O	0.952073	0.145478	0.950915
	H331	H	0.942430	0.146241	0.949754
	H332	H	0.957293	0.138162	0.958852
	O333	O	1.004347	1.002033	0.062762
	H334	H	1.002521	1.000102	0.055707
	H335	H	1.010199	1.008099	0.060382
	O336	O	0.443115	0.495993	0.452895
	H337	H	0.454478	0.484551	0.457366
	H338	H	0.436935	0.497800	0.449467
	O339	O	0.474993	0.483032	0.435095
	H340	H	0.479652	0.490670	0.423342
	H341	H	0.462678	0.473005	0.440532
	O342	O	-0.083102	1.094764	-0.147690
	H343	H	-0.093470	1.103472	-0.141835
	H344	H	-0.073782	1.093941	-0.156649
	O345	O	0.038927	-0.038569	0.057672
	H346	H	0.034894	-0.037347	0.045975
	H347	H	0.040232	-0.039297	0.064754
	O348	O	0.923395	0.038208	1.028772
	H349	H	0.918507	0.035246	1.021189
	H350	H	0.908413	0.029978	1.033682
	O351	O	0.023444	1.014359	0.959408
	H352	H	0.035600	1.003107	0.960083
	H353	H	0.020613	1.013295	0.964141
	O354	O	0.414912	0.534665	0.402784
	H355	H	0.426281	0.527030	0.399275
	H356	H	0.407930	0.534758	0.394551
	O357	O	0.552437	0.422236	0.443267
	H358	H	0.544442	0.418067	0.442163
	H359	H	0.561693	0.426893	0.446590
	O360	O	0.004900	-0.117448	0.066637
	H361	H	-0.001334	-0.106817	0.057863
	H362	H	0.006907	-0.127245	0.063752
	O363	O	0.549956	0.531454	0.538365
	H364	H	0.551997	0.533285	0.543244
	H365	H	0.544692	0.543570	0.538007
	O366	O	-0.010211	0.008214	0.942358
	H367	H	-0.007503	0.014685	0.937806
	H368	H	-0.000037	0.004648	0.938659
	O369	O	0.482080	0.589955	0.559097
	H370	H	0.484409	0.598101	0.563123
	H371	H	0.475688	0.591176	0.560010
