data_Molecule from HDF5

_cell_length_a		16.252871
_cell_length_b		16.180369
_cell_length_c		16.116606
_cell_angle_alpha	90.274944
_cell_angle_beta	90.034083
_cell_angle_gamma	89.887992
_symmetry_space_group_name_H-M	'P 1'
_symmetry_Int_Tables_number		1

loop_
	_symmetry_equiv_pos_as_xyz
	x,y,z

loop_
	_atom_site_label
	_atom_site_type_symbol
	_atom_site_fract_x
	_atom_site_fract_y
	_atom_site_fract_z
	H0	H	0.413439	0.838940	0.708564
	H1	H	0.606544	0.170054	0.710950
	H2	H	0.608248	0.840267	0.281823
	H3	H	0.411174	0.169282	0.285726
	H4	H	0.723410	0.403812	0.833826
	H5	H	0.721480	0.605527	0.163292
	H6	H	0.291494	0.604872	0.833425
	H7	H	0.295173	0.407424	0.163232
	H8	H	0.845383	0.718122	0.399453
	H9	H	0.172631	0.718718	0.597845
	H10	H	0.845428	0.288459	0.598827
	H11	H	0.173007	0.289518	0.398819
	H12	H	0.843916	0.407183	0.711172
	H13	H	0.171562	0.604251	0.714937
	H14	H	0.844390	0.601219	0.286329
	H15	H	0.173051	0.405290	0.284108
	H16	H	0.410047	0.715705	0.831175
	H17	H	0.606991	0.719970	0.162607
	H18	H	0.606640	0.290914	0.832389
	H19	H	0.408794	0.291432	0.162658
	H20	H	0.724755	0.840088	0.395531
	H21	H	0.723246	0.169002	0.598061
	H22	H	0.294707	0.839805	0.596648
	H23	H	0.292607	0.167424	0.397679
	H24	H	0.911106	0.338977	0.209263
	H25	H	0.105150	0.669501	0.211678
	H26	H	0.105854	0.340014	0.783576
	H27	H	0.908291	0.669712	0.785789
	H28	H	0.224148	0.901887	0.333114
	H29	H	0.222739	0.103328	0.662755
	H30	H	0.794486	0.103769	0.332986
	H31	H	0.795684	0.906746	0.662767
	H32	H	0.344362	0.218719	0.897072
	H33	H	0.672440	0.219820	0.096012
	H34	H	0.343653	0.791840	0.094087
	H35	H	0.672153	0.786836	0.895511
	H36	H	0.344871	0.906379	0.211146
	H37	H	0.673333	0.103447	0.211699
	H38	H	0.344659	0.102539	0.782894
	H39	H	0.673212	0.907233	0.783962
	H40	H	0.910295	0.217570	0.332920
	H41	H	0.108017	0.218519	0.663013
	H42	H	0.107201	0.789614	0.332261
	H43	H	0.910663	0.791909	0.662924
	H44	H	0.223164	0.340835	0.895962
	H45	H	0.222418	0.668594	0.098655
	H46	H	0.792896	0.339925	0.097616
	H47	H	0.792069	0.668868	0.899693
	H48	H	0.413009	0.122741	0.588633
	H49	H	0.605573	0.884902	0.594835
	H50	H	0.605806	0.122854	0.407400
	H51	H	0.412761	0.884607	0.402518
	H52	H	0.598086	0.412559	0.115032
	H53	H	0.602533	0.599315	0.877738
	H54	H	0.418022	0.598070	0.115877
	H55	H	0.416760	0.408272	0.879750
	H56	H	0.129613	0.609746	0.407723
	H57	H	0.892000	0.595617	0.591466
	H58	H	0.124266	0.417429	0.589220
	H59	H	0.895722	0.411873	0.415575
	H60	H	0.127882	0.410404	0.597766
	H61	H	0.890437	0.599827	0.593697
	H62	H	0.121712	0.588795	0.413997
	H63	H	0.891441	0.419381	0.397225
	H64	H	0.413492	0.601944	0.117789
	H65	H	0.603562	0.591521	0.880716
	H66	H	0.601729	0.410226	0.116961
	H67	H	0.410900	0.411825	0.877579
	H68	H	0.601448	0.123482	0.401593
	H69	H	0.597638	0.888279	0.588944
	H70	H	0.414934	0.123245	0.591917
	H71	H	0.419910	0.886093	0.402107
	H72	H	0.915522	0.621288	0.088615
	H73	H	0.100825	0.387971	0.087058
	H74	H	0.094378	0.620842	0.907535
	H75	H	0.911270	0.384604	0.900419
	H76	H	0.094651	0.912290	0.613218
	H77	H	0.106066	0.090804	0.378635
	H78	H	0.921783	0.087317	0.611535
	H79	H	0.904999	0.913117	0.376434
	H80	H	0.628036	0.101598	0.903000
	H81	H	0.394750	0.089800	0.089548
	H82	H	0.625875	0.904077	0.084880
	H83	H	0.393255	0.916856	0.900956
	H84	H	0.623507	0.917575	0.086123
	H85	H	0.389173	0.101152	0.099206
	H86	H	0.624190	0.098162	0.907717
	H87	H	0.387951	0.906542	0.896651
	H88	H	0.921790	0.108677	0.618972
	H89	H	0.094749	0.095328	0.381862
	H90	H	0.106354	0.903691	0.619407
	H91	H	0.922891	0.920004	0.383476
	H92	H	0.102201	0.620874	0.912617
	H93	H	0.106675	0.385596	0.090083
	H94	H	0.910077	0.623782	0.091912
	H95	H	0.919375	0.388762	0.904970
	H96	H	0.416323	0.121189	0.588923
	H97	H	0.606802	0.887975	0.585084
	H98	H	0.599204	0.120006	0.407548
	H99	H	0.416391	0.886635	0.408132
	H100	H	0.602433	0.414441	0.116532
	H101	H	0.595968	0.594825	0.880867
	H102	H	0.412131	0.596624	0.115806
	H103	H	0.416700	0.415073	0.880104
	H104	H	0.129325	0.592842	0.393409
	H105	H	0.891186	0.600327	0.588567
	H106	H	0.126336	0.405833	0.587868
	H107	H	0.887236	0.400328	0.401470
	H108	H	0.915720	0.622484	0.095564
	H109	H	0.101077	0.385164	0.093046
	H110	H	0.101887	0.624024	0.903677
	H111	H	0.911453	0.387568	0.908902
	H112	H	0.107213	0.918419	0.615560
	H113	H	0.103377	0.102503	0.377223
	H114	H	0.903270	0.096450	0.619755
	H115	H	0.919956	0.900308	0.377661
	H116	H	0.626255	0.095450	0.901676
	H117	H	0.390774	0.104236	0.084576
	H118	H	0.628014	0.911021	0.096678
	H119	H	0.392723	0.907993	0.909439
	C120	C	0.387321	0.013111	0.618610
	C121	C	0.631403	0.995904	0.618998
	C122	C	0.631267	0.013539	0.375769
	C123	C	0.387560	0.994946	0.375846
	C124	C	0.629412	0.383276	0.006687
	C125	C	0.629332	0.625149	0.989198
	C126	C	0.385965	0.626632	0.006717
	C127	C	0.386353	0.383386	0.988668
	C128	C	0.018288	0.625444	0.376637
	C129	C	0.999489	0.627129	0.620562
	C130	C	0.017521	0.382766	0.620058
	C131	C	1.000066	0.381834	0.375959
	C132	C	0.885943	0.513172	0.119761
	C133	C	0.130295	0.495264	0.119620
	C134	C	0.129123	0.513537	0.877116
	C135	C	0.885151	0.495950	0.876338
	C136	C	0.130928	0.881981	0.506765
	C137	C	0.129961	0.124838	0.488809
	C138	C	0.887509	0.125729	0.507001
	C139	C	0.887475	0.883007	0.488764
	C140	C	0.517391	0.126646	0.875503
	C141	C	0.499916	0.127153	0.119892
	C142	C	0.516972	0.883194	0.117753
	C143	C	0.500033	0.881974	0.874506
	C144	C	0.391753	0.888648	0.672309
	C145	C	0.627616	0.120389	0.674078
	C146	C	0.628772	0.889293	0.320048
	C147	C	0.390580	0.119549	0.322375
	C148	C	0.685149	0.384446	0.882708
	C149	C	0.684075	0.624389	0.113838
	C150	C	0.330191	0.624114	0.882478
	C151	C	0.331671	0.386071	0.113329
	C152	C	0.894326	0.680414	0.379269
	C153	C	0.123306	0.681386	0.618403
	C154	C	0.894084	0.327236	0.617901
	C155	C	0.123788	0.326869	0.378386
	C156	C	0.893374	0.385801	0.674349
	C157	C	0.122823	0.624668	0.676694
	C158	C	0.894033	0.622342	0.322658
	C159	C	0.123892	0.384841	0.321519
	C160	C	0.388501	0.680094	0.881558
	C161	C	0.626905	0.681720	0.113403
	C162	C	0.626712	0.328456	0.882052
	C163	C	0.388701	0.328732	0.113100
	C164	C	0.686956	0.889476	0.376308
	C165	C	0.685518	0.120138	0.617629
	C166	C	0.332633	0.888928	0.616773
	C167	C	0.331510	0.118568	0.378173
	C168	C	0.889739	0.388596	0.173024
	C169	C	0.126725	0.619793	0.175038
	C170	C	0.126584	0.389534	0.820834
	C171	C	0.887796	0.620321	0.822810
	C172	C	0.185896	0.882719	0.382229
	C173	C	0.184882	0.122992	0.613445
	C174	C	0.832252	0.123611	0.382636
	C175	C	0.832995	0.886058	0.613356
	C176	C	0.393491	0.181219	0.877320
	C177	C	0.623506	0.182157	0.116819
	C178	C	0.392989	0.829127	0.114877
	C179	C	0.623425	0.825872	0.876308
	C180	C	0.393627	0.886013	0.173118
	C181	C	0.624026	0.124252	0.174359
	C182	C	0.393490	0.123419	0.820625
	C183	C	0.623979	0.885429	0.820581
	C184	C	0.890075	0.180205	0.382388
	C185	C	0.127656	0.180152	0.613618
	C186	C	0.127804	0.827025	0.381927
	C187	C	0.890315	0.828965	0.613375
	C188	C	0.185122	0.389892	0.876859
	C189	C	0.184585	0.619599	0.118484
	C190	C	0.831018	0.389102	0.117154
	C191	C	0.829807	0.619724	0.879333
	C192	C	0.408445	0.099800	0.596354
	C193	C	0.609673	0.909365	0.596241
	C194	C	0.608645	0.099822	0.398718
	C195	C	0.409797	0.908212	0.397814
	C196	C	0.607336	0.405820	0.093831
	C197	C	0.607312	0.602116	0.902146
	C198	C	0.407959	0.605229	0.093863
	C199	C	0.408161	0.405411	0.901658
	C200	C	0.104635	0.603587	0.398775
	C201	C	0.913499	0.605230	0.598046
	C202	C	0.103676	0.404837	0.598310
	C203	C	0.913709	0.404043	0.398230
	C204	C	0.907375	0.600013	0.098277
	C205	C	0.108989	0.408625	0.096821
	C206	C	0.106293	0.599610	0.900827
	C207	C	0.907417	0.409143	0.898006
	C208	C	0.109200	0.904837	0.593677
	C209	C	0.108086	0.102485	0.401744
	C210	C	0.909211	0.104014	0.594227
	C211	C	0.909569	0.904748	0.401576
	C212	C	0.603718	0.104833	0.897504
	C213	C	0.413690	0.104994	0.097834
	C214	C	0.603498	0.904696	0.095681
	C215	C	0.413743	0.903882	0.895930
	Zn216	Zn	0.509404	0.005089	0.746645
	Zn217	Zn	0.509165	0.004075	0.247974
	Zn218	Zn	0.757688	0.504301	-0.001638
	Zn219	Zn	0.258146	0.504808	-0.001871
	Zn220	Zn	0.009252	0.754796	0.497694
	Zn221	Zn	0.009050	0.253771	0.498212
	Zn222	Zn	0.007250	0.505187	0.748712
	Zn223	Zn	0.008569	0.503842	0.247781
	Zn224	Zn	0.508327	0.753683	-0.003126
	Zn225	Zn	0.507752	0.255462	-0.002962
	Zn226	Zn	0.759489	0.004346	0.497479
	Zn227	Zn	0.258603	0.003039	0.497200
	N228	N	0.425077	0.966865	0.673499
	N229	N	0.594652	0.041961	0.675147
	N230	N	0.594848	0.967252	0.319418
	N231	N	0.424570	0.041478	0.320792
	N232	N	0.687006	0.417702	0.961403
	N233	N	0.685521	0.589853	0.035598
	N234	N	0.328404	0.591648	0.961373
	N235	N	0.330225	0.419575	0.034924
	N236	N	0.972420	0.682479	0.412129
	N237	N	0.045700	0.683142	0.584352
	N238	N	0.972346	0.325024	0.585068
	N239	N	0.045702	0.324778	0.411518
	N240	N	0.970840	0.419769	0.675760
	N241	N	0.044878	0.591416	0.678105
	N242	N	0.971994	0.588863	0.320888
	N243	N	0.045828	0.418049	0.319735
	N244	N	0.422545	0.681755	0.959810
	N245	N	0.593519	0.682148	0.034826
	N246	N	0.592904	0.327560	0.960233
	N247	N	0.421678	0.326660	0.034452
	N248	N	0.688640	0.967680	0.410355
	N249	N	0.687861	0.041877	0.584012
	N250	N	0.329773	0.967303	0.584186
	N251	N	0.329399	0.040023	0.410541
	N252	N	0.923189	0.466496	0.174746
	N253	N	0.093477	0.541518	0.175656
	N254	N	0.092390	0.467464	0.820920
	N255	N	0.921539	0.542305	0.820901
	N256	N	0.187982	0.916255	0.460796
	N257	N	0.186453	0.089089	0.534858
	N258	N	0.830717	0.090489	0.461063
	N259	N	0.831181	0.918883	0.534755
	N260	N	0.471428	0.183169	0.910725
	N261	N	0.545471	0.184043	0.083576
	N262	N	0.470819	0.827325	0.081295
	N263	N	0.545315	0.823632	0.909194
	N264	N	0.471702	0.919002	0.174947
	N265	N	0.546183	0.090630	0.176470
	N266	N	0.471500	0.090210	0.819088
	N267	N	0.546486	0.919710	0.819418
	N268	N	0.923811	0.181635	0.460764
	N269	N	0.094235	0.181548	0.535160
	N270	N	0.094391	0.826348	0.460430
	N271	N	0.923595	0.827174	0.534853
	N272	N	0.186847	0.467907	0.911111
	N273	N	0.187019	0.541463	0.084856
	N274	N	0.828568	0.467772	0.084741
	N275	N	0.828165	0.541290	0.911916
	O276	O	-0.061383	0.041977	-0.012898
	H277	H	-0.064326	0.046842	-0.011723
	H278	H	-0.064242	0.041654	-0.017840
	O279	O	0.499616	0.505034	0.541208
	H280	H	0.502481	0.503920	0.549882
	H281	H	0.502865	0.505397	0.535640
	O282	O	0.465921	0.523780	0.596318
	H283	H	0.452382	0.537886	0.599018
	H284	H	0.477363	0.513493	0.601829
	O285	O	1.014390	-0.019365	0.994955
	H286	H	1.029093	-0.023345	0.995659
	H287	H	1.016972	-0.013220	0.994135
	O288	O	1.041840	-0.015150	-0.008962
	H289	H	1.047136	-0.030640	-0.010396
	H290	H	1.034699	-0.018729	-0.008572
	O291	O	0.511955	0.453525	0.466847
	H292	H	0.520865	0.464758	0.471320
	H293	H	0.516148	0.450289	0.462215
	O294	O	1.038955	-0.097584	0.933141
	H295	H	1.047864	-0.097524	0.934865
	H296	H	1.046937	-0.093907	0.945216
	O297	O	-0.000180	-0.022473	-0.055460
	H298	H	0.002022	-0.020555	-0.056655
	H299	H	-0.000769	-0.017101	-0.052346
	O300	O	0.534263	0.566144	0.470156
	H301	H	0.529295	0.573762	0.476422
	H302	H	0.525568	0.563494	0.461057
	O303	O	0.001903	-0.027694	-0.044259
	H304	H	0.003294	-0.027685	-0.038919
	H305	H	0.000993	-0.027785	-0.045032
	O306	O	1.054610	0.006367	-0.091348
	H307	H	1.055717	0.006145	-0.099842
	H308	H	1.049337	0.009479	-0.096455
	O309	O	0.084368	0.047556	1.005416
	H310	H	0.085766	0.059441	1.013224
	H311	H	0.085146	0.047102	1.020846
	O312	O	0.995190	1.055544	1.002687
	H313	H	0.999139	1.050984	0.998095
	H314	H	1.002352	1.052468	0.997867
	O315	O	0.543913	0.458966	0.484116
	H316	H	0.534123	0.460074	0.488688
	H317	H	0.541284	0.460552	0.488533
	O318	O	0.497094	0.392576	0.491656
	H319	H	0.505654	0.392602	0.487288
	H320	H	0.507783	0.384141	0.488338
	O321	O	0.020654	1.102956	1.015229
	H322	H	0.009161	1.110142	1.006133
	H323	H	0.035485	1.099722	1.015652
	O324	O	0.538115	0.459170	0.461224
	H325	H	0.540808	0.451541	0.464988
	H326	H	0.540332	0.454325	0.474206
	O327	O	0.439055	0.530504	0.433574
	H328	H	0.437859	0.528918	0.436110
	H329	H	0.443794	0.526554	0.432025
	O330	O	0.632902	0.631087	0.502397
	H331	H	0.639844	0.630392	0.503851
	H332	H	0.641649	0.637019	0.506574
	O333	O	0.504927	0.514762	0.466431
	H334	H	0.510845	0.515238	0.460784
	H335	H	0.499537	0.516365	0.469832
	O336	O	0.607797	0.507404	0.515939
	H337	H	0.605158	0.505986	0.515537
	H338	H	0.609413	0.501509	0.509649
	O339	O	1.044221	0.980173	0.035140
	H340	H	1.048543	0.979312	0.035471
	H341	H	1.034450	0.981695	0.035957
	O342	O	0.401823	0.477690	0.469164
	H343	H	0.401195	0.475136	0.469160
	H344	H	0.405679	0.483720	0.462525
	O345	O	0.598840	0.566836	0.567037
	H346	H	0.601392	0.570694	0.569292
	H347	H	0.597822	0.574218	0.571140
	O348	O	-0.015668	0.077962	0.003714
	H349	H	-0.006500	0.066433	0.012324
	H350	H	-0.033603	0.081534	-0.000786
	O351	O	-0.405761	1.419053	1.492879
	H352	H	-0.420739	1.421753	1.502832
	H353	H	-0.402377	1.414804	1.491144
	O354	O	0.485967	0.505324	0.541024
	H355	H	0.477424	0.502720	0.534574
	H356	H	0.477287	0.505839	0.544531
	O357	O	-0.012560	1.011913	1.021815
	H358	H	-0.018916	1.016606	1.025318
	H359	H	-0.022470	1.018243	1.017297
