data_Molecule from HDF5

_cell_length_a		16.071696
_cell_length_b		16.275302
_cell_length_c		16.281610
_cell_angle_alpha	89.854363
_cell_angle_beta	89.915985
_cell_angle_gamma	89.889159
_symmetry_space_group_name_H-M	'P 1'
_symmetry_Int_Tables_number		1

loop_
	_symmetry_equiv_pos_as_xyz
	x,y,z

loop_
	_atom_site_label
	_atom_site_type_symbol
	_atom_site_fract_x
	_atom_site_fract_y
	_atom_site_fract_z
	H0	H	0.406025	0.837350	0.714636
	H1	H	0.605704	0.164958	0.712670
	H2	H	0.605639	0.837112	0.283048
	H3	H	0.404368	0.163393	0.281099
	H4	H	0.718227	0.403293	0.833046
	H5	H	0.716930	0.595419	0.162022
	H6	H	0.292083	0.598146	0.832571
	H7	H	0.291848	0.403315	0.161460
	H8	H	0.839948	0.715616	0.397118
	H9	H	0.171464	0.713514	0.594438
	H10	H	0.840463	0.287686	0.595355
	H11	H	0.170903	0.286400	0.398016
	H12	H	0.839357	0.403422	0.709178
	H13	H	0.170819	0.598488	0.709795
	H14	H	0.840005	0.600385	0.283032
	H15	H	0.170382	0.401333	0.283876
	H16	H	0.405273	0.716136	0.833761
	H17	H	0.605515	0.715515	0.160562
	H18	H	0.605431	0.285126	0.834475
	H19	H	0.404208	0.284952	0.160350
	H20	H	0.719216	0.836308	0.401164
	H21	H	0.717236	0.166828	0.592402
	H22	H	0.292478	0.836314	0.595522
	H23	H	0.292880	0.165120	0.400299
	H24	H	0.904141	0.337482	0.215161
	H25	H	0.106888	0.663085	0.213485
	H26	H	0.105996	0.337020	0.781488
	H27	H	0.904777	0.663884	0.781646
	H28	H	0.219668	0.902730	0.332426
	H29	H	0.218453	0.096905	0.661382
	H30	H	0.793152	0.098137	0.332768
	H31	H	0.794053	0.904858	0.662098
	H32	H	0.339604	0.214886	0.898847
	H33	H	0.669890	0.213827	0.096500
	H34	H	0.339333	0.786393	0.095832
	H35	H	0.671014	0.786189	0.898750
	H36	H	0.339163	0.901369	0.211353
	H37	H	0.671094	0.096644	0.208988
	H38	H	0.339939	0.099665	0.784276
	H39	H	0.671643	0.902403	0.785019
	H40	H	0.906416	0.216851	0.333933
	H41	H	0.106770	0.216061	0.660067
	H42	H	0.106953	0.784483	0.334257
	H43	H	0.905840	0.786265	0.659980
	H44	H	0.218002	0.335512	0.900482
	H45	H	0.216751	0.665150	0.092132
	H46	H	0.792949	0.335450	0.094724
	H47	H	0.792724	0.664841	0.901359
	H48	H	0.415992	0.116387	0.592050
	H49	H	0.596737	0.885690	0.591037
	H50	H	0.596693	0.118662	0.398124
	H51	H	0.409586	0.882456	0.403394
	H52	H	0.603974	0.412740	0.114682
	H53	H	0.596522	0.595117	0.880980
	H54	H	0.414037	0.592850	0.113345
	H55	H	0.409654	0.398102	0.876521
	H56	H	0.124947	0.595882	0.402691
	H57	H	0.889771	0.581139	0.593379
	H58	H	0.124766	0.407913	0.590734
	H59	H	0.890727	0.413138	0.414989
	H60	H	0.125089	0.406776	0.590149
	H61	H	0.881703	0.603369	0.598918
	H62	H	0.122245	0.593110	0.408801
	H63	H	0.886281	0.414812	0.398098
	H64	H	0.412389	0.594957	0.114483
	H65	H	0.599635	0.594391	0.880606
	H66	H	0.589626	0.405763	0.112337
	H67	H	0.406793	0.413513	0.879834
	H68	H	0.595797	0.116763	0.405475
	H69	H	0.601646	0.883752	0.591849
	H70	H	0.411639	0.117467	0.588257
	H71	H	0.417157	0.883626	0.401315
	H72	H	0.913906	0.618114	0.095143
	H73	H	0.095368	0.384432	0.090988
	H74	H	0.104593	0.617271	0.909176
	H75	H	0.910189	0.382100	0.902857
	H76	H	0.095307	0.896503	0.616733
	H77	H	0.108680	0.087458	0.379351
	H78	H	0.917975	0.092025	0.611518
	H79	H	0.920846	0.899026	0.379585
	H80	H	0.622719	0.089786	0.903814
	H81	H	0.387424	0.102352	0.076805
	H82	H	0.620290	0.911438	0.086015
	H83	H	0.384059	0.902881	0.900583
	H84	H	0.624633	0.908165	0.096130
	H85	H	0.391726	0.076599	0.088857
	H86	H	0.624969	0.095917	0.902567
	H87	H	0.388825	0.905768	0.913622
	H88	H	0.912619	0.102221	0.616001
	H89	H	0.087204	0.088840	0.385408
	H90	H	0.107864	0.909334	0.615222
	H91	H	0.902061	0.904509	0.375851
	H92	H	0.100714	0.620759	0.893293
	H93	H	0.100740	0.383436	0.089328
	H94	H	0.916347	0.615329	0.088035
	H95	H	0.912366	0.382815	0.901297
	H96	H	0.411046	0.118965	0.594742
	H97	H	0.597842	0.883902	0.595497
	H98	H	0.602416	0.119252	0.403299
	H99	H	0.414523	0.885248	0.409139
	H100	H	0.602006	0.397849	0.117714
	H101	H	0.597379	0.593210	0.880500
	H102	H	0.410657	0.592180	0.113510
	H103	H	0.421295	0.407735	0.883841
	H104	H	0.122998	0.589388	0.402372
	H105	H	0.890100	0.598671	0.576289
	H106	H	0.123837	0.408600	0.589734
	H107	H	0.884264	0.399045	0.406019
	H108	H	0.908929	0.617507	0.089646
	H109	H	0.099362	0.381815	0.094398
	H110	H	0.088343	0.613874	0.903566
	H111	H	0.913502	0.383866	0.903806
	H112	H	0.091458	0.912789	0.609727
	H113	H	0.098280	0.107060	0.376451
	H114	H	0.905966	0.091411	0.615360
	H115	H	0.915379	0.917739	0.383173
	H116	H	0.623360	0.095242	0.908546
	H117	H	0.380159	0.099088	0.104088
	H118	H	0.624665	0.901020	0.087708
	H119	H	0.388750	0.916124	0.903488
	C120	C	0.384297	0.009089	0.620014
	C121	C	0.627511	0.993139	0.619914
	C122	C	0.626998	0.009536	0.375211
	C123	C	0.384176	0.991699	0.375770
	C124	C	0.627350	0.377595	0.006412
	C125	C	0.626889	0.622042	0.989007
	C126	C	0.383367	0.622041	0.005510
	C127	C	0.383483	0.378308	0.988558
	C128	C	0.013783	0.621854	0.375805
	C129	C	0.996743	0.622504	0.617765
	C130	C	0.014718	0.379397	0.618548
	C131	C	0.996614	0.379886	0.376958
	C132	C	0.884352	0.508597	0.119497
	C133	C	0.127152	0.491548	0.119193
	C134	C	0.126786	0.508607	0.874589
	C135	C	0.883304	0.491449	0.874908
	C136	C	0.127830	0.877955	0.505527
	C137	C	0.127209	0.122439	0.488363
	C138	C	0.884113	0.123068	0.505713
	C139	C	0.883889	0.879078	0.488258
	C140	C	0.514199	0.122505	0.876445
	C141	C	0.495987	0.120788	0.118177
	C142	C	0.513539	0.878223	0.118909
	C143	C	0.496899	0.879515	0.877057
	C144	C	0.386013	0.886076	0.676084
	C145	C	0.625051	0.116355	0.674052
	C146	C	0.625734	0.885953	0.320644
	C147	C	0.385128	0.114735	0.319723
	C148	C	0.681110	0.382095	0.882336
	C149	C	0.680723	0.617437	0.112658
	C150	C	0.329340	0.618879	0.881714
	C151	C	0.329040	0.382161	0.112307
	C152	C	0.889381	0.677440	0.377502
	C153	C	0.121749	0.676355	0.614769
	C154	C	0.889881	0.324984	0.615823
	C155	C	0.121407	0.324196	0.377994
	C156	C	0.889399	0.382258	0.672645
	C157	C	0.121532	0.619267	0.672167
	C158	C	0.889373	0.620331	0.320877
	C159	C	0.121202	0.381638	0.321592
	C160	C	0.385541	0.677625	0.882395
	C161	C	0.625355	0.676972	0.112064
	C162	C	0.625207	0.323097	0.883214
	C163	C	0.384704	0.323286	0.111866
	C164	C	0.681883	0.885469	0.379724
	C165	C	0.680757	0.117308	0.614300
	C166	C	0.329846	0.885456	0.616613
	C167	C	0.329549	0.115813	0.378829
	C168	C	0.885400	0.385872	0.175900
	C169	C	0.125531	0.614619	0.174297
	C170	C	0.125258	0.385597	0.819822
	C171	C	0.885173	0.615111	0.820014
	C172	C	0.182538	0.881940	0.381995
	C173	C	0.181408	0.118450	0.612198
	C174	C	0.830162	0.119500	0.381915
	C175	C	0.830097	0.883285	0.612350
	C176	C	0.389103	0.177122	0.878749
	C177	C	0.620658	0.175730	0.116354
	C178	C	0.388812	0.823684	0.116431
	C179	C	0.621658	0.824304	0.878743
	C180	C	0.388926	0.880371	0.174321
	C181	C	0.621158	0.117647	0.172318
	C182	C	0.389385	0.119953	0.821798
	C183	C	0.621990	0.882103	0.822394
	C184	C	0.886133	0.178586	0.382501
	C185	C	0.125768	0.177671	0.611501
	C186	C	0.126607	0.822982	0.382751
	C187	C	0.885736	0.824170	0.611431
	C188	C	0.181152	0.384982	0.879005
	C189	C	0.180774	0.615532	0.114375
	C190	C	0.829668	0.384908	0.116503
	C191	C	0.829404	0.615546	0.879606
	C192	C	0.406414	0.095555	0.598101
	C193	C	0.605643	0.906647	0.598881
	C194	C	0.604977	0.095749	0.396187
	C195	C	0.406841	0.906003	0.398169
	C196	C	0.605110	0.398945	0.092759
	C197	C	0.604552	0.600552	0.902822
	C198	C	0.405804	0.600099	0.091447
	C199	C	0.405912	0.399936	0.902490
	C200	C	0.100950	0.599363	0.398112
	C201	C	0.909587	0.600805	0.596038
	C202	C	0.101865	0.401242	0.596590
	C203	C	0.909595	0.402493	0.399551
	C204	C	0.906669	0.594644	0.097342
	C205	C	0.104987	0.405509	0.097939
	C206	C	0.104426	0.595081	0.895769
	C207	C	0.905438	0.405227	0.896163
	C208	C	0.104854	0.899621	0.591705
	C209	C	0.104729	0.100784	0.402520
	C210	C	0.905915	0.101553	0.591921
	C211	C	0.906120	0.900686	0.401939
	C212	C	0.601279	0.100315	0.898437
	C213	C	0.408944	0.099074	0.096321
	C214	C	0.600619	0.900410	0.096652
	C215	C	0.409871	0.901755	0.899321
	Zn216	Zn	0.505924	0.001088	0.749408
	Zn217	Zn	0.504991	-0.000043	0.246611
	Zn218	Zn	0.755464	0.499752	-0.002474
	Zn219	Zn	0.255199	0.500131	-0.003002
	Zn220	Zn	0.005290	0.750206	0.496526
	Zn221	Zn	0.005918	0.251581	0.497129
	Zn222	Zn	0.005103	0.500740	0.745932
	Zn223	Zn	0.005403	0.500348	0.248898
	Zn224	Zn	0.505310	0.750693	-0.002777
	Zn225	Zn	0.505073	0.249589	-0.001802
	Zn226	Zn	0.755800	0.001023	0.496895
	Zn227	Zn	0.255576	0.000514	0.497195
	N228	N	0.418961	0.964080	0.678349
	N229	N	0.592709	0.038100	0.677636
	N230	N	0.592281	0.963823	0.317930
	N231	N	0.418576	0.036839	0.317808
	N232	N	0.682450	0.415298	0.959887
	N233	N	0.681737	0.583903	0.035034
	N234	N	0.327936	0.585045	0.959180
	N235	N	0.327963	0.415708	0.034670
	N236	N	0.967928	0.678618	0.410983
	N237	N	0.043044	0.678332	0.581692
	N238	N	0.968693	0.323073	0.582788
	N239	N	0.042957	0.323087	0.411971
	N240	N	0.968084	0.415316	0.674394
	N241	N	0.042764	0.586376	0.674160
	N242	N	0.967865	0.586583	0.319758
	N243	N	0.042518	0.415328	0.320744
	N244	N	0.418524	0.679748	0.960404
	N245	N	0.592471	0.679781	0.034201
	N246	N	0.592534	0.320238	0.961467
	N247	N	0.417918	0.320810	0.033924
	N248	N	0.683030	0.963290	0.412820
	N249	N	0.682245	0.039567	0.581389
	N250	N	0.328808	0.962943	0.582335
	N251	N	0.328816	0.038486	0.413023
	N252	N	0.918592	0.463804	0.177886
	N253	N	0.092948	0.536478	0.177574
	N254	N	0.092220	0.463603	0.817001
	N255	N	0.917907	0.536923	0.816943
	N256	N	0.183371	0.915299	0.459612
	N257	N	0.182382	0.084805	0.534777
	N258	N	0.828817	0.085649	0.459386
	N259	N	0.829010	0.916701	0.534781
	N260	N	0.467778	0.178873	0.912062
	N261	N	0.541936	0.177712	0.083249
	N262	N	0.467319	0.822241	0.082753
	N263	N	0.542967	0.822747	0.912228
	N264	N	0.467666	0.913574	0.175918
	N265	N	0.542651	0.084333	0.173768
	N266	N	0.468176	0.086849	0.820210
	N267	N	0.543356	0.915602	0.821026
	N268	N	0.918995	0.180772	0.460438
	N269	N	0.093017	0.180399	0.533483
	N270	N	0.093308	0.820436	0.460587
	N271	N	0.918348	0.821215	0.533127
	N272	N	0.182256	0.462633	0.912357
	N273	N	0.181787	0.538102	0.080760
	N274	N	0.828848	0.462174	0.082149
	N275	N	0.828152	0.537884	0.913044
	O276	O	0.942222	1.032656	0.008303
	H277	H	0.936646	1.039698	0.006508
	H278	H	0.934083	1.031549	0.009378
	O279	O	0.007064	-0.011029	-0.069351
	H280	H	0.003668	-0.003119	-0.079563
	H281	H	-0.000730	-0.010755	-0.072155
	O282	O	-0.017469	0.006635	0.954030
	H283	H	-0.016528	0.008715	0.955074
	H284	H	-0.009806	0.001112	0.955176
	O285	O	0.463870	0.442565	0.530309
	H286	H	0.463446	0.439974	0.538750
	H287	H	0.470327	0.443846	0.525253
	O288	O	0.503015	0.565961	0.501408
	H289	H	0.503918	0.573649	0.495160
	H290	H	0.483569	0.572255	0.497697
	O291	O	0.488238	0.515483	0.513891
	H292	H	0.489852	0.523755	0.521263
	H293	H	0.494190	0.518526	0.506121
	O294	O	-0.489710	-0.525765	0.530425
	H295	H	-0.484736	-0.529030	0.530293
	H296	H	-0.493415	-0.516462	0.536422
	O297	O	0.453440	0.533835	0.498660
	H298	H	0.452962	0.522185	0.502696
	H299	H	0.451408	0.533349	0.497573
	O300	O	0.028397	0.964408	1.012647
	H301	H	0.025733	0.965398	1.024821
	H302	H	0.037540	0.969683	1.011883
	O303	O	0.524308	0.531436	0.520385
	H304	H	0.523089	0.529843	0.525531
	H305	H	0.529725	0.540373	0.527310
	O306	O	-0.038975	-0.037595	0.946502
	H307	H	-0.043821	-0.027747	0.940346
	H308	H	-0.040750	-0.052154	0.946671
	O309	O	0.976142	1.023924	0.937134
	H310	H	0.982581	1.023876	0.940683
	H311	H	0.975943	1.029095	0.932225
	O312	O	0.525199	0.529657	0.518630
	H313	H	0.520085	0.529439	0.519892
	H314	H	0.527299	0.533035	0.514141
	O315	O	0.446580	0.553245	0.467960
	H316	H	0.447636	0.543848	0.469537
	H317	H	0.442504	0.560644	0.469210
	O318	O	0.023517	1.004773	-0.036601
	H319	H	0.027939	1.005893	-0.044065
	H320	H	0.029327	1.004185	-0.038588
	O321	O	1.000532	0.938128	0.020042
	H322	H	0.997384	0.930703	0.023828
	H323	H	0.999845	0.944489	0.014868
