data_Molecule from HDF5

_cell_length_a		16.258086
_cell_length_b		16.078313
_cell_length_c		16.262007
_cell_angle_alpha	89.504873
_cell_angle_beta	89.864803
_cell_angle_gamma	90.322313
_symmetry_space_group_name_H-M	'P 1'
_symmetry_Int_Tables_number		1

loop_
	_symmetry_equiv_pos_as_xyz
	x,y,z

loop_
	_atom_site_label
	_atom_site_type_symbol
	_atom_site_fract_x
	_atom_site_fract_y
	_atom_site_fract_z
	H0	H	0.403234	0.836885	0.711380
	H1	H	0.605056	0.166643	0.706785
	H2	H	0.603247	0.835200	0.283073
	H3	H	0.408313	0.165792	0.280055
	H4	H	0.721391	0.402160	0.834434
	H5	H	0.721391	0.600832	0.159752
	H6	H	0.290543	0.602872	0.833803
	H7	H	0.287478	0.397864	0.160089
	H8	H	0.840792	0.714870	0.397824
	H9	H	0.169764	0.714699	0.590793
	H10	H	0.841309	0.284031	0.596253
	H11	H	0.170253	0.289993	0.399212
	H12	H	0.842426	0.397240	0.714204
	H13	H	0.168640	0.602975	0.710234
	H14	H	0.841625	0.601780	0.279683
	H15	H	0.168044	0.401975	0.279178
	H16	H	0.407548	0.716211	0.832743
	H17	H	0.602558	0.714124	0.161004
	H18	H	0.600966	0.292513	0.831122
	H19	H	0.406404	0.285092	0.160411
	H20	H	0.718079	0.836046	0.396686
	H21	H	0.719443	0.166541	0.592727
	H22	H	0.290255	0.836083	0.594814
	H23	H	0.292671	0.166346	0.393732
	H24	H	0.902924	0.337048	0.213096
	H25	H	0.104304	0.667374	0.207113
	H26	H	0.104046	0.335514	0.783659
	H27	H	0.906633	0.665665	0.779084
	H28	H	0.221202	0.901931	0.331892
	H29	H	0.222339	0.102159	0.657322
	H30	H	0.791549	0.103061	0.331887
	H31	H	0.786686	0.896742	0.657911
	H32	H	0.340356	0.215282	0.897245
	H33	H	0.669794	0.214099	0.090355
	H34	H	0.341243	0.785390	0.097245
	H35	H	0.669433	0.790218	0.899460
	H36	H	0.342449	0.897915	0.213414
	H37	H	0.668735	0.101036	0.209491
	H38	H	0.341555	0.104023	0.777985
	H39	H	0.667673	0.901789	0.779243
	H40	H	0.908623	0.216844	0.332335
	H41	H	0.102576	0.211752	0.660253
	H42	H	0.102648	0.791129	0.330280
	H43	H	0.907331	0.786042	0.659486
	H44	H	0.218282	0.336254	0.898445
	H45	H	0.220917	0.666017	0.095414
	H46	H	0.789071	0.336109	0.097906
	H47	H	0.791929	0.666629	0.895636
	H48	H	0.410519	0.119743	0.581327
	H49	H	0.598123	0.881579	0.590989
	H50	H	0.591308	0.116576	0.402848
	H51	H	0.420442	0.885224	0.406509
	H52	H	0.599032	0.411972	0.113395
	H53	H	0.598486	0.592961	0.880158
	H54	H	0.402080	0.581884	0.113558
	H55	H	0.411785	0.414258	0.880968
	H56	H	0.124941	0.603699	0.398348
	H57	H	0.889886	0.588440	0.585579
	H58	H	0.122337	0.414457	0.595299
	H59	H	0.886323	0.406414	0.401963
	H60	H	0.125114	0.401578	0.593106
	H61	H	0.887813	0.590385	0.593168
	H62	H	0.119791	0.593931	0.407901
	H63	H	0.889855	0.409103	0.408405
	H64	H	0.423871	0.589640	0.109830
	H65	H	0.597301	0.597769	0.879186
	H66	H	0.592394	0.406704	0.112614
	H67	H	0.413511	0.404687	0.878957
	H68	H	0.605591	0.120333	0.406468
	H69	H	0.591442	0.883794	0.588768
	H70	H	0.409002	0.122562	0.590857
	H71	H	0.405931	0.882417	0.411585
	H72	H	0.916615	0.615839	0.081286
	H73	H	0.096565	0.384723	0.083262
	H74	H	0.101824	0.619621	0.904515
	H75	H	0.921305	0.381392	0.891415
	H76	H	0.100425	0.918820	0.609739
	H77	H	0.097943	0.095947	0.378166
	H78	H	0.904527	0.088436	0.613724
	H79	H	0.913330	0.911608	0.379314
	H80	H	0.621712	0.096190	0.903251
	H81	H	0.389577	0.089405	0.086057
	H82	H	0.621118	0.913594	0.092818
	H83	H	0.392345	0.913239	0.913903
	H84	H	0.623745	0.904644	0.090813
	H85	H	0.387324	0.090533	0.093015
	H86	H	0.620706	0.092544	0.899384
	H87	H	0.386851	0.917143	0.893721
	H88	H	0.915491	0.088583	0.610643
	H89	H	0.099816	0.097946	0.376858
	H90	H	0.088093	0.905030	0.610449
	H91	H	0.910659	0.906680	0.376677
	H92	H	0.097824	0.620721	0.898889
	H93	H	0.099013	0.381186	0.091691
	H94	H	0.905830	0.621541	0.085824
	H95	H	0.918331	0.389152	0.920032
	H96	H	0.419136	0.117887	0.587160
	H97	H	0.596646	0.883416	0.584126
	H98	H	0.600289	0.122692	0.391919
	H99	H	0.409817	0.879111	0.396714
	H100	H	0.599098	0.403672	0.114931
	H101	H	0.602112	0.595614	0.879163
	H102	H	0.407512	0.603376	0.118702
	H103	H	0.404505	0.409179	0.877509
	H104	H	0.122767	0.589923	0.393701
	H105	H	0.887648	0.596045	0.587487
	H106	H	0.121067	0.408262	0.583310
	H107	H	0.889297	0.412977	0.401690
	H108	H	0.916029	0.621598	0.093972
	H109	H	0.089945	0.384350	0.091105
	H110	H	0.094782	0.618773	0.904186
	H111	H	0.895459	0.377696	0.904825
	H112	H	0.104565	0.902689	0.615435
	H113	H	0.100998	0.095310	0.377607
	H114	H	0.910389	0.097958	0.615186
	H115	H	0.907614	0.911610	0.378385
	H116	H	0.623385	0.096974	0.897689
	H117	H	0.387281	0.095493	0.088103
	H118	H	0.620421	0.908806	0.083646
	H119	H	0.383451	0.897752	0.901951
	C120	C	0.383212	0.010619	0.616398
	C121	C	0.625091	0.992576	0.615754
	C122	C	0.626791	0.010294	0.372966
	C123	C	0.383958	0.991580	0.374094
	C124	C	0.625716	0.380308	0.005424
	C125	C	0.627652	0.623821	0.988152
	C126	C	0.383028	0.622400	0.005638
	C127	C	0.381161	0.378580	0.987604
	C128	C	0.013972	0.624234	0.372214
	C129	C	0.996663	0.622084	0.616655
	C130	C	0.014077	0.378289	0.619263
	C131	C	0.996721	0.380589	0.374744
	C132	C	0.883267	0.510339	0.116941
	C133	C	0.125372	0.492581	0.117011
	C134	C	0.126586	0.510217	0.874833
	C135	C	0.883443	0.492063	0.875201
	C136	C	0.126258	0.880598	0.503482
	C137	C	0.127677	0.123581	0.486348
	C138	C	0.883138	0.122136	0.504568
	C139	C	0.881896	0.879100	0.486383
	C140	C	0.513627	0.124330	0.872021
	C141	C	0.496402	0.121483	0.116686
	C142	C	0.513782	0.878918	0.118702
	C143	C	0.496091	0.880536	0.874573
	C144	C	0.383916	0.886421	0.673263
	C145	C	0.624339	0.117106	0.669746
	C146	C	0.623660	0.884992	0.319705
	C147	C	0.387581	0.116215	0.317922
	C148	C	0.682626	0.382169	0.882608
	C149	C	0.683361	0.621395	0.110917
	C150	C	0.328482	0.622117	0.882431
	C151	C	0.325825	0.378845	0.111027
	C152	C	0.890213	0.678481	0.376027
	C153	C	0.120380	0.677724	0.612694
	C154	C	0.890512	0.321977	0.616823
	C155	C	0.120726	0.326600	0.377845
	C156	C	0.890923	0.378812	0.675122
	C157	C	0.120027	0.621765	0.671759
	C158	C	0.890569	0.622059	0.317395
	C159	C	0.119565	0.382067	0.317993
	C160	C	0.386698	0.678493	0.882067
	C161	C	0.624234	0.677381	0.111706
	C162	C	0.622586	0.327828	0.880906
	C163	C	0.384553	0.322386	0.111267
	C164	C	0.680521	0.885306	0.376420
	C165	C	0.681577	0.116889	0.613057
	C166	C	0.327725	0.885892	0.615255
	C167	C	0.330131	0.116638	0.374517
	C168	C	0.883405	0.386234	0.174493
	C169	C	0.123922	0.617770	0.170403
	C170	C	0.124255	0.385453	0.820681
	C171	C	0.885820	0.616546	0.817709
	C172	C	0.182579	0.882395	0.380554
	C173	C	0.183373	0.121075	0.609072
	C174	C	0.829150	0.121997	0.380937
	C175	C	0.825884	0.878249	0.609237
	C176	C	0.389680	0.178333	0.876083
	C177	C	0.620568	0.176669	0.111994
	C178	C	0.390495	0.822711	0.117149
	C179	C	0.619802	0.826837	0.877969
	C180	C	0.390906	0.878993	0.174940
	C181	C	0.619945	0.120446	0.171246
	C182	C	0.390369	0.122995	0.816555
	C183	C	0.619025	0.882599	0.818117
	C184	C	0.887385	0.178777	0.381229
	C185	C	0.124136	0.176117	0.610244
	C186	C	0.123343	0.827342	0.379733
	C187	C	0.885588	0.823064	0.609991
	C188	C	0.180733	0.385559	0.878206
	C189	C	0.182290	0.616814	0.115084
	C190	C	0.827045	0.385783	0.116980
	C191	C	0.828810	0.616726	0.875579
	C192	C	0.406111	0.097710	0.593255
	C193	C	0.602023	0.905378	0.594262
	C194	C	0.605343	0.097249	0.394102
	C195	C	0.405655	0.904599	0.397914
	C196	C	0.603477	0.401381	0.091363
	C197	C	0.605650	0.602146	0.901882
	C198	C	0.404827	0.598728	0.091869
	C199	C	0.403320	0.402419	0.901575
	C200	C	0.100107	0.602421	0.393638
	C201	C	0.910777	0.598487	0.595183
	C202	C	0.100485	0.401281	0.597205
	C203	C	0.910785	0.402970	0.397420
	C204	C	0.906222	0.597114	0.093842
	C205	C	0.101985	0.405820	0.095303
	C206	C	0.104585	0.597303	0.896345
	C207	C	0.905362	0.405152	0.898489
	C208	C	0.104360	0.902475	0.589630
	C209	C	0.106070	0.102552	0.399893
	C210	C	0.903911	0.098510	0.590753
	C211	C	0.903987	0.902951	0.400504
	C212	C	0.599556	0.102176	0.893646
	C213	C	0.410318	0.098535	0.095403
	C214	C	0.599706	0.902173	0.095676
	C215	C	0.409899	0.902745	0.896576
	Zn216	Zn	0.504301	0.002268	0.744340
	Zn217	Zn	0.505277	-0.000208	0.246559
	Zn218	Zn	0.755153	0.501501	-0.003050
	Zn219	Zn	0.253622	0.501574	-0.003327
	Zn220	Zn	0.005248	0.751581	0.494968
	Zn221	Zn	0.005731	0.251002	0.496395
	Zn222	Zn	0.005499	0.501121	0.746973
	Zn223	Zn	0.004640	0.501921	0.244642
	Zn224	Zn	0.504424	0.751072	-0.002967
	Zn225	Zn	0.504771	0.251364	-0.005045
	Zn226	Zn	0.753343	0.000884	0.494991
	Zn227	Zn	0.255587	0.001362	0.494749
	N228	N	0.417742	0.965102	0.674021
	N229	N	0.590036	0.038770	0.671699
	N230	N	0.591000	0.963691	0.317376
	N231	N	0.420643	0.037563	0.317867
	N232	N	0.684757	0.414049	0.960792
	N233	N	0.685185	0.588694	0.033069
	N234	N	0.326140	0.587753	0.960408
	N235	N	0.323613	0.413081	0.033109
	N236	N	0.967845	0.679993	0.409295
	N237	N	0.042920	0.677901	0.578834
	N238	N	0.968190	0.321681	0.582865
	N239	N	0.043249	0.325488	0.412467
	N240	N	0.968813	0.413066	0.676810
	N241	N	0.042111	0.588011	0.674515
	N242	N	0.968439	0.589047	0.314832
	N243	N	0.041517	0.414873	0.316092
	N244	N	0.420006	0.678605	0.959697
	N245	N	0.590448	0.679113	0.034126
	N246	N	0.587751	0.326459	0.958189
	N247	N	0.418180	0.322044	0.033610
	N248	N	0.682906	0.964152	0.408753
	N249	N	0.682211	0.038347	0.580168
	N250	N	0.327011	0.964291	0.580681
	N251	N	0.327642	0.038011	0.408692
	N252	N	0.917922	0.464541	0.174666
	N253	N	0.089055	0.539461	0.171648
	N254	N	0.091120	0.464012	0.818482
	N255	N	0.919213	0.537993	0.817413
	N256	N	0.184309	0.914988	0.458514
	N257	N	0.185862	0.089172	0.530820
	N258	N	0.826232	0.087492	0.458671
	N259	N	0.823233	0.912293	0.531223
	N260	N	0.467255	0.179372	0.909777
	N261	N	0.542791	0.177429	0.078718
	N262	N	0.467923	0.822670	0.082804
	N263	N	0.542395	0.825338	0.912405
	N264	N	0.468684	0.913357	0.176038
	N265	N	0.541895	0.086927	0.174278
	N266	N	0.468134	0.089783	0.814128
	N267	N	0.540918	0.915241	0.815899
	N268	N	0.920215	0.178879	0.459015
	N269	N	0.090092	0.177626	0.532969
	N270	N	0.088976	0.826132	0.457259
	N271	N	0.919758	0.823433	0.532555
	N272	N	0.182214	0.464135	0.911140
	N273	N	0.182871	0.538274	0.082215
	N274	N	0.826894	0.464024	0.081824
	N275	N	0.827174	0.538486	0.910500
	O276	O	1.094448	0.958130	0.086704
	H277	H	1.088794	0.967636	0.078438
	H278	H	1.095874	0.941584	0.084729
	O279	O	0.086759	-0.022508	1.074360
	H280	H	0.075885	-0.030946	1.068611
	H281	H	0.080779	-0.023339	1.060718
	O282	O	-0.101477	-0.102113	0.009525
	H283	H	-0.100905	-0.101563	0.013383
	H284	H	-0.100208	-0.101239	0.010702
	O285	O	0.495189	0.546151	0.495346
	H286	H	0.495085	0.547663	0.498323
	H287	H	0.494099	0.549612	0.506434
	O288	O	-0.088826	-0.041764	0.092625
	H289	H	-0.087280	-0.033487	0.102361
	H290	H	-0.077754	-0.050020	0.085525
	O291	O	-0.039222	1.011508	0.100580
	H292	H	-0.038251	1.012690	0.102355
	H293	H	-0.035577	1.010728	0.103653
	O294	O	0.037660	0.985403	0.046111
	H295	H	0.053055	0.979884	0.046530
	H296	H	0.030535	0.991972	0.042120
	O297	O	0.534204	0.450186	0.502404
	H298	H	0.529326	0.452232	0.507395
	H299	H	0.544158	0.443051	0.498343
	O300	O	0.538001	0.472642	0.465679
	H301	H	0.533761	0.474249	0.464728
	H302	H	0.532395	0.477023	0.463571
	O303	O	1.023199	0.123445	0.913620
	H304	H	1.021631	0.124343	0.912742
	H305	H	1.023058	0.113627	0.911267
	O306	O	0.019696	1.019894	0.956221
	H307	H	0.025227	1.025740	0.958023
	H308	H	0.011224	1.031088	0.951441
	O309	O	-0.055956	0.927174	0.971011
	H310	H	-0.058576	0.932374	0.971918
	H311	H	-0.050561	0.922210	0.974104
	O312	O	-0.040081	0.014734	0.930011
	H313	H	-0.030588	0.002758	0.930998
	H314	H	-0.055123	0.013059	0.936964
	O315	O	-0.049124	-0.000462	-0.122199
	H316	H	-0.047429	-0.014863	-0.106093
	H317	H	-0.053683	0.009905	-0.124256
	O318	O	0.025029	-0.016605	0.977338
	H319	H	0.025379	-0.013914	0.970227
	H320	H	0.029492	-0.008907	0.985771
	O321	O	0.565410	0.465134	0.583582
	H322	H	0.571301	0.464239	0.583816
	H323	H	0.567005	0.469107	0.587810
	O324	O	0.954044	0.056395	1.041940
	H325	H	0.942346	0.061867	1.051239
	H326	H	0.947907	0.050654	1.036451
	O327	O	1.038732	1.019409	0.931308
	H328	H	1.028849	1.015240	0.935457
	H329	H	1.039138	1.021045	0.930465
	O330	O	0.580213	0.472376	0.533231
	H331	H	0.573072	0.475099	0.533983
	H332	H	0.570914	0.475826	0.519155
	O333	O	0.997337	0.028338	-0.051294
	H334	H	0.992235	0.031165	-0.055914
	H335	H	1.003706	0.032312	-0.056232
	O336	O	0.557345	0.511983	0.601751
	H337	H	0.559967	0.497568	0.607517
	H338	H	0.553518	0.504962	0.604931
	O339	O	0.466536	0.495707	0.519861
	H340	H	0.471941	0.498479	0.523466
	H341	H	0.464540	0.501269	0.521037
	O342	O	0.127414	1.058748	0.987113
	H343	H	0.126982	1.050031	0.999655
	H344	H	0.132790	1.069200	0.991359
	O345	O	0.523988	0.536328	0.599777
	H346	H	0.522670	0.536342	0.603313
	H347	H	0.538666	0.524798	0.592617
