data_Molecule from HDF5

_cell_length_a		16.265822
_cell_length_b		16.204944
_cell_length_c		16.247946
_cell_angle_alpha	90.059702
_cell_angle_beta	89.934065
_cell_angle_gamma	89.949451
_symmetry_space_group_name_H-M	'P 1'
_symmetry_Int_Tables_number		1

loop_
	_symmetry_equiv_pos_as_xyz
	x,y,z

loop_
	_atom_site_label
	_atom_site_type_symbol
	_atom_site_fract_x
	_atom_site_fract_y
	_atom_site_fract_z
	H0	H	0.402543	0.835235	0.712549
	H1	H	0.596824	0.164408	0.712665
	H2	H	0.599714	0.835652	0.285095
	H3	H	0.402562	0.164132	0.286390
	H4	H	0.715415	0.400300	0.836535
	H5	H	0.712905	0.598143	0.164364
	H6	H	0.284781	0.598632	0.836330
	H7	H	0.285196	0.401923	0.163960
	H8	H	0.835953	0.713660	0.403792
	H9	H	0.165017	0.713388	0.597868
	H10	H	0.836205	0.287024	0.597707
	H11	H	0.163704	0.286661	0.402851
	H12	H	0.836374	0.402378	0.714815
	H13	H	0.164237	0.598597	0.714931
	H14	H	0.835704	0.598311	0.286917
	H15	H	0.163564	0.401963	0.285902
	H16	H	0.402142	0.712452	0.835129
	H17	H	0.596202	0.713271	0.164130
	H18	H	0.597506	0.286670	0.835173
	H19	H	0.401102	0.285558	0.163645
	H20	H	0.715686	0.836520	0.400580
	H21	H	0.713541	0.164470	0.598088
	H22	H	0.287321	0.835518	0.597141
	H23	H	0.285875	0.163761	0.400463
	H24	H	0.901169	0.335482	0.214411
	H25	H	0.096948	0.664252	0.214189
	H26	H	0.098288	0.335529	0.786865
	H27	H	0.902674	0.664212	0.787968
	H28	H	0.214161	0.901396	0.335923
	H29	H	0.213610	0.097606	0.664139
	H30	H	0.786075	0.099879	0.336338
	H31	H	0.786456	0.902757	0.663987
	H32	H	0.335227	0.213365	0.902200
	H33	H	0.664025	0.213055	0.095968
	H34	H	0.334804	0.787302	0.095969
	H35	H	0.663970	0.786248	0.901793
	H36	H	0.336514	0.900633	0.215490
	H37	H	0.663725	0.097849	0.212851
	H38	H	0.336013	0.098577	0.784596
	H39	H	0.663983	0.901987	0.785273
	H40	H	0.903572	0.213728	0.336781
	H41	H	0.097336	0.212968	0.664089
	H42	H	0.098206	0.785986	0.336219
	H43	H	0.903923	0.788537	0.664848
	H44	H	0.212966	0.335182	0.902188
	H45	H	0.212678	0.664607	0.098434
	H46	H	0.786010	0.335557	0.097834
	H47	H	0.786809	0.664589	0.903342
	H48	H	0.403289	0.115048	0.581685
	H49	H	0.589379	0.882397	0.596626
	H50	H	0.599323	0.117669	0.410315
	H51	H	0.414399	0.884269	0.405928
	H52	H	0.591901	0.396541	0.119736
	H53	H	0.600378	0.591022	0.881816
	H54	H	0.401703	0.587162	0.116362
	H55	H	0.408266	0.407325	0.883641
	H56	H	0.115799	0.590890	0.408006
	H57	H	0.885305	0.585890	0.599097
	H58	H	0.114812	0.403929	0.582575
	H59	H	0.883026	0.408537	0.405672
	H60	H	0.114928	0.417930	0.599567
	H61	H	0.880075	0.601454	0.599480
	H62	H	0.117560	0.592691	0.402795
	H63	H	0.881567	0.405307	0.406623
	H64	H	0.413188	0.595038	0.115238
	H65	H	0.588891	0.588244	0.885340
	H66	H	0.601959	0.412293	0.117858
	H67	H	0.405274	0.403499	0.881766
	H68	H	0.593647	0.119522	0.399892
	H69	H	0.592531	0.884213	0.586706
	H70	H	0.399564	0.122142	0.600950
	H71	H	0.403498	0.882913	0.412793
	H72	H	0.901800	0.619379	0.096196
	H73	H	0.093459	0.379655	0.102920
	H74	H	0.095892	0.617524	0.911302
	H75	H	0.899903	0.381252	0.911559
	H76	H	0.091906	0.910245	0.615734
	H77	H	0.083097	0.101980	0.384021
	H78	H	0.906303	0.086459	0.616112
	H79	H	0.904506	0.920051	0.385825
	H80	H	0.618664	0.096866	0.903424
	H81	H	0.382723	0.097495	0.088854
	H82	H	0.617346	0.891761	0.080664
	H83	H	0.381762	0.899686	0.907714
	H84	H	0.610529	0.922311	0.087561
	H85	H	0.384849	0.087448	0.092500
	H86	H	0.615865	0.093881	0.910843
	H87	H	0.385161	0.911689	0.909595
	H88	H	0.912326	0.095741	0.616719
	H89	H	0.106527	0.098042	0.377694
	H90	H	0.092248	0.902604	0.618401
	H91	H	0.919955	0.901644	0.385215
	H92	H	0.094397	0.619658	0.903413
	H93	H	0.085503	0.385799	0.089761
	H94	H	0.909780	0.617135	0.096833
	H95	H	0.905661	0.379312	0.899087
	H96	H	0.417934	0.115037	0.595003
	H97	H	0.599230	0.879930	0.594598
	H98	H	0.587369	0.115088	0.409710
	H99	H	0.403569	0.879124	0.400061
	H100	H	0.584266	0.412402	0.112892
	H101	H	0.591866	0.599465	0.881251
	H102	H	0.401327	0.600691	0.121041
	H103	H	0.403409	0.408614	0.882232
	H104	H	0.118820	0.596777	0.407160
	H105	H	0.885770	0.594516	0.585363
	H106	H	0.122899	0.397087	0.601586
	H107	H	0.883602	0.407619	0.409002
	H108	H	0.905906	0.616308	0.089407
	H109	H	0.101161	0.381069	0.087868
	H110	H	0.088514	0.615975	0.907285
	H111	H	0.913285	0.384522	0.909412
	H112	H	0.099049	0.907551	0.618306
	H113	H	0.092662	0.079406	0.386310
	H114	H	0.901194	0.095361	0.619894
	H115	H	0.897426	0.898585	0.377425
	H116	H	0.615710	0.089188	0.903759
	H117	H	0.380121	0.095228	0.098605
	H118	H	0.622651	0.903485	0.110176
	H119	H	0.380778	0.908102	0.898586
	C120	C	0.378988	0.008445	0.620642
	C121	C	0.621531	0.991314	0.620963
	C122	C	0.621993	0.008541	0.378093
	C123	C	0.379184	0.991068	0.378334
	C124	C	0.621280	0.378405	0.008413
	C125	C	0.621588	0.621598	0.991458
	C126	C	0.377486	0.621590	0.008591
	C127	C	0.377872	0.378391	0.991404
	C128	C	0.008526	0.621753	0.378714
	C129	C	0.992177	0.622239	0.622663
	C130	C	0.009267	0.378316	0.622481
	C131	C	0.990969	0.378445	0.378928
	C132	C	0.877771	0.508713	0.122159
	C133	C	0.120798	0.491291	0.121581
	C134	C	0.121238	0.508655	0.879196
	C135	C	0.878721	0.490959	0.879323
	C136	C	0.122505	0.878080	0.508901
	C137	C	0.122218	0.121527	0.491159
	C138	C	0.878722	0.121402	0.509253
	C139	C	0.878791	0.878497	0.491400
	C140	C	0.508202	0.121504	0.877825
	C141	C	0.491319	0.121612	0.121111
	C142	C	0.508019	0.878122	0.120987
	C143	C	0.491209	0.878213	0.877681
	C144	C	0.381993	0.884424	0.675084
	C145	C	0.618116	0.115272	0.675547
	C146	C	0.619701	0.884794	0.323232
	C147	C	0.382183	0.115029	0.324153
	C148	C	0.676835	0.380503	0.885091
	C149	C	0.675317	0.618610	0.115300
	C150	C	0.322624	0.618645	0.884988
	C151	C	0.323226	0.381170	0.115047
	C152	C	0.885042	0.676566	0.382456
	C153	C	0.115774	0.676263	0.618963
	C154	C	0.885307	0.324286	0.619026
	C155	C	0.114790	0.324029	0.382005
	C156	C	0.885221	0.381991	0.676675
	C157	C	0.115266	0.619557	0.677592
	C158	C	0.884948	0.619134	0.324324
	C159	C	0.114613	0.381153	0.323838
	C160	C	0.380693	0.675471	0.884460
	C161	C	0.617215	0.675601	0.115141
	C162	C	0.618333	0.323859	0.884543
	C163	C	0.380862	0.323678	0.115010
	C164	C	0.677289	0.885192	0.380525
	C165	C	0.675647	0.115343	0.618343
	C166	C	0.324605	0.884545	0.617805
	C167	C	0.324233	0.114885	0.380660
	C168	C	0.880983	0.384634	0.176374
	C169	C	0.117459	0.615466	0.176101
	C170	C	0.118785	0.384653	0.824112
	C171	C	0.881726	0.615362	0.825361
	C172	C	0.176599	0.880977	0.385037
	C173	C	0.176603	0.118968	0.614861
	C174	C	0.824171	0.119528	0.385382
	C175	C	0.824032	0.881648	0.614924
	C176	C	0.384442	0.176186	0.881058
	C177	C	0.614869	0.176004	0.117439
	C178	C	0.384128	0.824346	0.117535
	C179	C	0.614822	0.823335	0.880598
	C180	C	0.384856	0.880992	0.176392
	C181	C	0.614847	0.118511	0.175072
	C182	C	0.384726	0.118961	0.822743
	C183	C	0.615008	0.881194	0.823142
	C184	C	0.882267	0.176236	0.385430
	C185	C	0.118442	0.175762	0.615139
	C186	C	0.118764	0.823782	0.385131
	C187	C	0.882387	0.825088	0.615588
	C188	C	0.175681	0.384609	0.881628
	C189	C	0.174925	0.615622	0.118827
	C190	C	0.823237	0.384771	0.119115
	C191	C	0.824303	0.615275	0.882418
	C192	C	0.400558	0.095030	0.598979
	C193	C	0.599970	0.904501	0.599081
	C194	C	0.599975	0.095245	0.400132
	C195	C	0.400706	0.904490	0.399972
	C196	C	0.599284	0.400614	0.094632
	C197	C	0.600199	0.599542	0.904936
	C198	C	0.398945	0.600532	0.095087
	C199	C	0.399293	0.400156	0.905073
	C200	C	0.095258	0.599737	0.399700
	C201	C	0.905771	0.600415	0.601100
	C202	C	0.095311	0.400044	0.600911
	C203	C	0.904874	0.400559	0.400732
	C204	C	0.899390	0.595295	0.100694
	C205	C	0.099691	0.404509	0.099932
	C206	C	0.099346	0.595306	0.900905
	C207	C	0.899990	0.404158	0.900364
	C208	C	0.100890	0.900400	0.595417
	C209	C	0.100486	0.099623	0.404918
	C210	C	0.900312	0.099129	0.595276
	C211	C	0.900694	0.900170	0.405233
	C212	C	0.594373	0.099735	0.899427
	C213	C	0.404908	0.099811	0.099757
	C214	C	0.594340	0.899517	0.099116
	C215	C	0.404847	0.900043	0.898991
	Zn216	Zn	0.500049	0.000001	0.748937
	Zn217	Zn	0.500194	0.000039	0.249793
	Zn218	Zn	0.750061	0.499900	-0.000015
	Zn219	Zn	0.249180	0.500336	0.000239
	Zn220	Zn	0.000805	0.750400	0.500565
	Zn221	Zn	0.000184	0.249838	0.500357
	Zn222	Zn	0.000281	0.500189	0.751332
	Zn223	Zn	-0.000205	0.499684	0.250004
	Zn224	Zn	0.499414	0.749485	-0.000711
	Zn225	Zn	0.499570	0.250325	-0.000299
	Zn226	Zn	0.750297	0.000071	0.499851
	Zn227	Zn	0.250566	0.000083	0.499641
	N228	N	0.414996	0.962441	0.676931
	N229	N	0.585166	0.037201	0.677086
	N230	N	0.586055	0.962600	0.321493
	N231	N	0.415518	0.037021	0.322474
	N232	N	0.678776	0.413675	0.963057
	N233	N	0.678217	0.585828	0.037226
	N234	N	0.320517	0.586031	0.963068
	N235	N	0.321149	0.414541	0.037198
	N236	N	0.962939	0.678218	0.415376
	N237	N	0.038095	0.678131	0.585800
	N238	N	0.963274	0.321830	0.586217
	N239	N	0.037116	0.322238	0.415454
	N240	N	0.963117	0.415008	0.679042
	N241	N	0.037421	0.586509	0.679817
	N242	N	0.962820	0.585881	0.321877
	N243	N	0.036861	0.414287	0.321948
	N244	N	0.414358	0.677268	0.962092
	N245	N	0.584415	0.677362	0.037173
	N246	N	0.584402	0.322611	0.962111
	N247	N	0.413982	0.321856	0.037386
	N248	N	0.678861	0.963145	0.413858
	N249	N	0.678317	0.037046	0.585416
	N250	N	0.322491	0.962511	0.584817
	N251	N	0.322227	0.036881	0.413768
	N252	N	0.914238	0.462604	0.178185
	N253	N	0.084551	0.537320	0.177891
	N254	N	0.085488	0.462778	0.822682
	N255	N	0.914763	0.537267	0.823222
	N256	N	0.178714	0.914143	0.463016
	N257	N	0.179125	0.086063	0.536868
	N258	N	0.821917	0.086135	0.463197
	N259	N	0.821692	0.914159	0.536823
	N260	N	0.462069	0.177804	0.914694
	N261	N	0.537049	0.178134	0.084770
	N262	N	0.461756	0.822578	0.083565
	N263	N	0.536976	0.821482	0.913874
	N264	N	0.462887	0.913405	0.178731
	N265	N	0.537120	0.085307	0.177318
	N266	N	0.462588	0.085800	0.820685
	N267	N	0.537221	0.914541	0.821145
	N268	N	0.915659	0.177453	0.463156
	N269	N	0.085370	0.177438	0.537414
	N270	N	0.086117	0.821852	0.463199
	N271	N	0.915711	0.823060	0.537900
	N272	N	0.177397	0.462639	0.914851
	N273	N	0.177167	0.537512	0.085685
	N274	N	0.821113	0.462752	0.085884
	N275	N	0.822480	0.537110	0.915390
