data_Molecule from HDF5

_cell_length_a		16.202670
_cell_length_b		16.171769
_cell_length_c		16.170754
_cell_angle_alpha	89.365181
_cell_angle_beta	90.227432
_cell_angle_gamma	90.376921
_symmetry_space_group_name_H-M	'P 1'
_symmetry_Int_Tables_number		1

loop_
	_symmetry_equiv_pos_as_xyz
	x,y,z

loop_
	_atom_site_label
	_atom_site_type_symbol
	_atom_site_fract_x
	_atom_site_fract_y
	_atom_site_fract_z
	H0	H	0.401219	0.833671	0.710262
	H1	H	0.601811	0.163370	0.704949
	H2	H	0.597885	0.832966	0.282793
	H3	H	0.403353	0.162941	0.275893
	H4	H	0.716630	0.401830	0.829258
	H5	H	0.718310	0.596213	0.157761
	H6	H	0.287987	0.598159	0.829888
	H7	H	0.290093	0.395368	0.159296
	H8	H	0.838272	0.711560	0.393051
	H9	H	0.166790	0.711796	0.591578
	H10	H	0.838910	0.281397	0.594433
	H11	H	0.167591	0.287079	0.399300
	H12	H	0.838508	0.397098	0.708655
	H13	H	0.167955	0.596850	0.705913
	H14	H	0.839314	0.597856	0.276944
	H15	H	0.168093	0.402307	0.284360
	H16	H	0.404665	0.713293	0.828969
	H17	H	0.602674	0.709714	0.158951
	H18	H	0.599411	0.288336	0.827677
	H19	H	0.403973	0.281429	0.157520
	H20	H	0.713658	0.833674	0.397137
	H21	H	0.719080	0.162109	0.592014
	H22	H	0.287232	0.833466	0.592975
	H23	H	0.289976	0.163765	0.392561
	H24	H	0.904850	0.332955	0.208527
	H25	H	0.104164	0.663212	0.206058
	H26	H	0.100018	0.332713	0.782754
	H27	H	0.904084	0.661671	0.775823
	H28	H	0.214277	0.902216	0.327769
	H29	H	0.218834	0.096300	0.657520
	H30	H	0.789140	0.097997	0.328891
	H31	H	0.787813	0.896046	0.657944
	H32	H	0.337780	0.211551	0.891779
	H33	H	0.665884	0.211917	0.091058
	H34	H	0.338617	0.780191	0.092999
	H35	H	0.668286	0.787905	0.897819
	H36	H	0.336592	0.896724	0.206013
	H37	H	0.666168	0.096508	0.205509
	H38	H	0.337999	0.095779	0.777817
	H39	H	0.667598	0.901699	0.781651
	H40	H	0.903528	0.214236	0.329833
	H41	H	0.100772	0.208671	0.659532
	H42	H	0.099595	0.787398	0.328971
	H43	H	0.904345	0.781318	0.658375
	H44	H	0.214114	0.332411	0.899312
	H45	H	0.220202	0.661916	0.092361
	H46	H	0.788460	0.333490	0.093298
	H47	H	0.791130	0.663122	0.892546
	H48	H	0.409384	0.119704	0.595134
	H49	H	0.591428	0.881557	0.585347
	H50	H	0.598300	0.118230	0.393494
	H51	H	0.409706	0.882577	0.405686
	H52	H	0.590601	0.400827	0.111194
	H53	H	0.603026	0.596442	0.872848
	H54	H	0.417181	0.586668	0.109553
	H55	H	0.413940	0.402694	0.875212
	H56	H	0.116836	0.582754	0.403432
	H57	H	0.887191	0.584393	0.581868
	H58	H	0.121119	0.405989	0.588689
	H59	H	0.886750	0.400922	0.413836
	H60	H	0.122439	0.403762	0.591584
	H61	H	0.883555	0.588274	0.592159
	H62	H	0.125588	0.597530	0.389645
	H63	H	0.887555	0.418366	0.397172
	H64	H	0.411368	0.594476	0.113357
	H65	H	0.595273	0.587965	0.877184
	H66	H	0.600956	0.400684	0.114365
	H67	H	0.401136	0.401776	0.872837
	H68	H	0.590722	0.115197	0.397688
	H69	H	0.597028	0.879471	0.588053
	H70	H	0.419383	0.112276	0.581110
	H71	H	0.399644	0.878101	0.400768
	H72	H	0.900896	0.618555	0.082569
	H73	H	0.091449	0.379031	0.096888
	H74	H	0.095549	0.615077	0.900636
	H75	H	0.917851	0.385711	0.913309
	H76	H	0.093642	0.903380	0.611900
	H77	H	0.084942	0.093455	0.378791
	H78	H	0.917827	0.093975	0.611061
	H79	H	0.911391	0.909892	0.377705
	H80	H	0.620090	0.091527	0.901077
	H81	H	0.382264	0.093684	0.085770
	H82	H	0.623137	0.908196	0.103096
	H83	H	0.388454	0.909552	0.908035
	H84	H	0.622686	0.890791	0.085131
	H85	H	0.385329	0.089784	0.080910
	H86	H	0.621047	0.094575	0.896487
	H87	H	0.383800	0.909188	0.893756
	H88	H	0.902432	0.093395	0.615565
	H89	H	0.098623	0.104211	0.371959
	H90	H	0.098047	0.904432	0.611772
	H91	H	0.908950	0.900214	0.374536
	H92	H	0.097564	0.615587	0.901332
	H93	H	0.091570	0.382633	0.083395
	H94	H	0.914234	0.618601	0.095547
	H95	H	0.893281	0.377051	0.905066
	H96	H	0.401826	0.117242	0.579350
	H97	H	0.591250	0.879827	0.591051
	H98	H	0.598759	0.115838	0.402676
	H99	H	0.409625	0.878955	0.393961
	H100	H	0.597451	0.409392	0.109512
	H101	H	0.591464	0.600130	0.875181
	H102	H	0.406899	0.585674	0.111897
	H103	H	0.406088	0.412840	0.876768
	H104	H	0.120789	0.601736	0.410063
	H105	H	0.883500	0.595665	0.583131
	H106	H	0.120984	0.401100	0.587685
	H107	H	0.879305	0.396728	0.391241
	H108	H	0.918168	0.611797	0.077565
	H109	H	0.103209	0.377036	0.090076
	H110	H	0.097432	0.615946	0.899111
	H111	H	0.914747	0.377140	0.887918
	H112	H	0.094778	0.905819	0.610214
	H113	H	0.102369	0.085187	0.376151
	H114	H	0.909796	0.080136	0.608846
	H115	H	0.901842	0.907109	0.374321
	H116	H	0.621337	0.096852	0.901612
	H117	H	0.383083	0.087349	0.087166
	H118	H	0.615567	0.915107	0.079885
	H119	H	0.383043	0.896839	0.902412
	C120	C	0.380891	0.006940	0.614561
	C121	C	0.623335	0.989216	0.615293
	C122	C	0.623223	0.007156	0.371391
	C123	C	0.379175	0.989331	0.370545
	C124	C	0.623531	0.377332	0.002127
	C125	C	0.625126	0.621076	0.984518
	C126	C	0.382576	0.618930	0.002765
	C127	C	0.379800	0.375784	0.984457
	C128	C	0.011931	0.621450	0.371262
	C129	C	0.993675	0.618780	0.614676
	C130	C	0.012166	0.375294	0.617050
	C131	C	0.993991	0.377712	0.373587
	C132	C	0.881764	0.507231	0.115341
	C133	C	0.125372	0.489030	0.116892
	C134	C	0.124090	0.506409	0.873233
	C135	C	0.880811	0.488761	0.871580
	C136	C	0.123760	0.877393	0.502346
	C137	C	0.124536	0.120994	0.484798
	C138	C	0.880866	0.119357	0.502817
	C139	C	0.879660	0.875927	0.484732
	C140	C	0.511631	0.121407	0.870546
	C141	C	0.492507	0.118854	0.113287
	C142	C	0.511216	0.875437	0.116695
	C143	C	0.494162	0.877732	0.873494
	C144	C	0.381813	0.882873	0.671353
	C145	C	0.622321	0.113628	0.668538
	C146	C	0.619100	0.882569	0.319113
	C147	C	0.382812	0.113800	0.314381
	C148	C	0.678589	0.381222	0.878020
	C149	C	0.680638	0.617023	0.108608
	C150	C	0.326438	0.618160	0.878724
	C151	C	0.326675	0.376380	0.109374
	C152	C	0.887779	0.675319	0.372456
	C153	C	0.117787	0.674309	0.612223
	C154	C	0.887828	0.319795	0.614203
	C155	C	0.118327	0.324291	0.378070
	C156	C	0.887816	0.377353	0.671083
	C157	C	0.118163	0.617010	0.669102
	C158	C	0.888301	0.618486	0.315043
	C159	C	0.118509	0.381534	0.320900
	C160	C	0.384167	0.675596	0.878506
	C161	C	0.622814	0.673086	0.109435
	C162	C	0.620272	0.324891	0.877272
	C163	C	0.383355	0.319332	0.108483
	C164	C	0.676698	0.883004	0.376166
	C165	C	0.680510	0.113040	0.612241
	C166	C	0.324700	0.882907	0.613413
	C167	C	0.326718	0.114336	0.372752
	C168	C	0.884077	0.382626	0.171124
	C169	C	0.124331	0.613430	0.169921
	C170	C	0.120498	0.381963	0.819965
	C171	C	0.883751	0.612657	0.814434
	C172	C	0.177466	0.881565	0.377611
	C173	C	0.180345	0.116731	0.608672
	C174	C	0.826118	0.117986	0.378427
	C175	C	0.825382	0.876609	0.608827
	C176	C	0.387321	0.174913	0.871907
	C177	C	0.616795	0.173966	0.110994
	C178	C	0.387512	0.818901	0.113310
	C179	C	0.618777	0.824708	0.877002
	C180	C	0.386510	0.876641	0.169690
	C181	C	0.616693	0.116612	0.168071
	C182	C	0.387435	0.117136	0.815289
	C183	C	0.618505	0.881231	0.819224
	C184	C	0.883182	0.175598	0.378714
	C185	C	0.121659	0.172686	0.609966
	C186	C	0.120224	0.824463	0.378062
	C187	C	0.883525	0.819858	0.609169
	C188	C	0.177570	0.381770	0.877595
	C189	C	0.182103	0.612761	0.113176
	C190	C	0.826328	0.382795	0.113798
	C191	C	0.827555	0.613440	0.872384
	C192	C	0.403520	0.093826	0.591850
	C193	C	0.600198	0.902662	0.594271
	C194	C	0.602109	0.094091	0.391880
	C195	C	0.400098	0.902287	0.393411
	C196	C	0.602535	0.397588	0.089059
	C197	C	0.603094	0.600825	0.897620
	C198	C	0.405092	0.595666	0.089187
	C199	C	0.400922	0.398973	0.897401
	C200	C	0.098494	0.600369	0.394296
	C201	C	0.907147	0.596055	0.592276
	C202	C	0.098992	0.397293	0.595709
	C203	C	0.906963	0.399077	0.394556
	C204	C	0.904384	0.593730	0.092196
	C205	C	0.102045	0.402074	0.096192
	C206	C	0.102881	0.593009	0.894121
	C207	C	0.902170	0.402304	0.895325
	C208	C	0.101997	0.898362	0.588852
	C209	C	0.101977	0.100595	0.398142
	C210	C	0.903255	0.095851	0.589508
	C211	C	0.901096	0.898954	0.397978
	C212	C	0.598517	0.100446	0.893016
	C213	C	0.405815	0.096699	0.091133
	C214	C	0.597993	0.897988	0.095686
	C215	C	0.407556	0.898799	0.895064
	Zn216	Zn	0.502600	-0.001559	0.743780
	Zn217	Zn	0.500916	-0.002347	0.242851
	Zn218	Zn	0.752683	0.498634	-0.006796
	Zn219	Zn	0.253057	0.497305	-0.005207
	Zn220	Zn	0.002320	0.748486	0.493659
	Zn221	Zn	0.002220	0.248250	0.494510
	Zn222	Zn	0.003229	0.497985	0.743962
	Zn223	Zn	0.003585	0.498989	0.244358
	Zn224	Zn	0.503769	0.748648	-0.005467
	Zn225	Zn	0.502140	0.248774	-0.007488
	Zn226	Zn	0.751769	-0.002043	0.493775
	Zn227	Zn	0.252525	-0.001168	0.492571
	N228	N	0.415777	0.961172	0.672392
	N229	N	0.587426	0.035761	0.670517
	N230	N	0.586392	0.960843	0.316082
	N231	N	0.414634	0.035042	0.312823
	N232	N	0.680667	0.413330	0.956549
	N233	N	0.682378	0.585446	0.029943
	N234	N	0.325349	0.583590	0.956863
	N235	N	0.324233	0.410675	0.031242
	N236	N	0.965779	0.677472	0.406631
	N237	N	0.039377	0.675640	0.578806
	N238	N	0.966078	0.318208	0.581398
	N239	N	0.039781	0.321920	0.410285
	N240	N	0.965923	0.411344	0.672768
	N241	N	0.039996	0.583515	0.670912
	N242	N	0.966500	0.585860	0.314100
	N243	N	0.040255	0.414079	0.317924
	N244	N	0.418571	0.676194	0.956552
	N245	N	0.589253	0.676070	0.031145
	N246	N	0.587139	0.322269	0.955460
	N247	N	0.415906	0.318873	0.029881
	N248	N	0.679517	0.961530	0.407766
	N249	N	0.681305	0.034661	0.579825
	N250	N	0.324249	0.961044	0.578628
	N251	N	0.324338	0.035938	0.406802
	N252	N	0.918053	0.461085	0.172163
	N253	N	0.089682	0.535472	0.172222
	N254	N	0.087920	0.460355	0.817273
	N255	N	0.916167	0.534302	0.813735
	N256	N	0.179595	0.914009	0.455841
	N257	N	0.182243	0.085380	0.529938
	N258	N	0.824636	0.083614	0.456827
	N259	N	0.822890	0.910620	0.530433
	N260	N	0.465531	0.177638	0.905587
	N261	N	0.538410	0.175515	0.077604
	N262	N	0.466247	0.817670	0.081333
	N263	N	0.540522	0.822396	0.910010
	N264	N	0.464344	0.911055	0.171924
	N265	N	0.538401	0.083275	0.169853
	N266	N	0.465901	0.084732	0.814138
	N267	N	0.540109	0.913455	0.816934
	N268	N	0.916362	0.176578	0.457001
	N269	N	0.087345	0.175301	0.532037
	N270	N	0.087234	0.821865	0.456340
	N271	N	0.916407	0.818941	0.530732
	N272	N	0.180118	0.460115	0.910000
	N273	N	0.182873	0.534248	0.081041
	N274	N	0.824558	0.461124	0.079853
	N275	N	0.825427	0.535376	0.907319
	O276	O	1.058715	1.065117	0.014626
	H277	H	1.054456	1.070823	0.009938
	H278	H	1.058581	1.060834	0.008527
	O279	O	-0.050716	-0.021514	1.061101
	H280	H	-0.051808	-0.027233	1.068297
	H281	H	-0.053672	-0.015662	1.064857
	O282	O	0.033158	-0.063628	0.124908
	H283	H	0.034224	-0.072044	0.132545
	H284	H	0.039858	-0.056241	0.114304
	O285	O	0.480876	0.525459	0.470621
	H286	H	0.474109	0.529078	0.464342
	H287	H	0.482662	0.514155	0.472647
	O288	O	-0.046683	0.016951	-0.020196
	H289	H	-0.056672	0.012182	-0.017156
	H290	H	-0.041927	0.011933	-0.019749
	O291	O	0.073015	0.992179	0.022633
	H292	H	0.066241	1.009653	0.019774
	H293	H	0.082197	0.995031	0.031501
	O294	O	0.062102	0.989174	-0.018086
	H295	H	0.061473	0.979491	-0.025707
	H296	H	0.062186	0.990631	-0.013811
	O297	O	0.494333	0.516094	0.459970
	H298	H	0.491079	0.521627	0.452011
	H299	H	0.488687	0.524902	0.462008
	O300	O	0.484581	0.470282	0.509308
	H301	H	0.488087	0.462301	0.508651
	H302	H	0.493872	0.469741	0.503431
	O303	O	1.020184	-0.068646	1.000334
	H304	H	1.006769	-0.074832	1.005116
	H305	H	1.025974	-0.076387	0.992812
	O306	O	-0.056018	0.998339	0.961353
	H307	H	-0.060874	1.005284	0.962324
	H308	H	-0.066871	1.000756	0.958083
	O309	O	-0.085537	1.018399	0.996016
	H310	H	-0.081706	1.018761	1.000895
	H311	H	-0.097165	1.015096	0.993112
	O312	O	-0.018494	-0.010383	1.043869
	H313	H	-0.019336	0.000609	1.040589
	H314	H	-0.014365	-0.013588	1.047676
	O315	O	0.553883	0.526662	0.534362
	H316	H	0.551731	0.524467	0.532858
	H317	H	0.560274	0.521472	0.539443
	O318	O	0.014604	-0.056180	0.948017
	H319	H	0.017536	-0.052990	0.943428
	H320	H	0.013722	-0.058437	0.949145
	O321	O	0.459358	0.565864	0.504237
	H322	H	0.467113	0.569227	0.507502
	H323	H	0.465557	0.569155	0.509475
	O324	O	0.993040	0.014104	0.980733
	H325	H	0.996411	0.005652	0.986253
	H326	H	0.989979	0.014759	0.986391
	O327	O	1.070256	0.952760	0.939777
	H328	H	1.075220	0.962876	0.949279
	H329	H	1.082283	0.947273	0.936980
	O330	O	0.525194	0.481140	0.539786
	H331	H	0.520699	0.481669	0.536201
	H332	H	0.526192	0.482562	0.547913
	O333	O	0.577275	0.515690	0.494896
	H334	H	0.581648	0.517979	0.498420
	H335	H	0.576691	0.520201	0.502096
	O336	O	0.512112	0.450369	0.467808
	H337	H	0.509530	0.444841	0.463549
	H338	H	0.511280	0.451291	0.470440
	O339	O	0.499188	0.518948	0.461185
	H340	H	0.500359	0.520384	0.461507
	H341	H	0.495309	0.522872	0.457038
	O342	O	0.529041	0.515274	0.551650
	H343	H	0.532124	0.506498	0.549076
	H344	H	0.522632	0.517023	0.547676
	O345	O	0.456098	0.517836	0.502227
	H346	H	0.455583	0.518407	0.510445
	H347	H	0.452466	0.522160	0.505927
