data_Molecule from HDF5

_cell_length_a		16.328311
_cell_length_b		16.176255
_cell_length_c		16.241761
_cell_angle_alpha	89.719943
_cell_angle_beta	90.030095
_cell_angle_gamma	90.007885
_symmetry_space_group_name_H-M	'P 1'
_symmetry_Int_Tables_number		1

loop_
	_symmetry_equiv_pos_as_xyz
	x,y,z

loop_
	_atom_site_label
	_atom_site_type_symbol
	_atom_site_fract_x
	_atom_site_fract_y
	_atom_site_fract_z
	H0	H	0.401250	0.837504	0.709114
	H1	H	0.602136	0.164301	0.708148
	H2	H	0.600529	0.836165	0.278327
	H3	H	0.400460	0.163727	0.277896
	H4	H	0.718799	0.398718	0.835023
	H5	H	0.715358	0.602156	0.159296
	H6	H	0.279909	0.602952	0.833715
	H7	H	0.284031	0.399437	0.159683
	H8	H	0.838919	0.718127	0.394388
	H9	H	0.164087	0.713635	0.593826
	H10	H	0.839303	0.282186	0.599592
	H11	H	0.163705	0.287174	0.398663
	H12	H	0.838571	0.397536	0.714510
	H13	H	0.161328	0.602663	0.714639
	H14	H	0.837564	0.603272	0.280346
	H15	H	0.161827	0.400657	0.279463
	H16	H	0.399671	0.714804	0.831416
	H17	H	0.597750	0.715528	0.158888
	H18	H	0.598218	0.288261	0.831173
	H19	H	0.400629	0.282960	0.158477
	H20	H	0.719077	0.837353	0.390897
	H21	H	0.717379	0.163105	0.594708
	H22	H	0.285144	0.837829	0.595170
	H23	H	0.283666	0.163798	0.390836
	H24	H	0.899208	0.337852	0.213106
	H25	H	0.098514	0.665455	0.209208
	H26	H	0.102727	0.338329	0.779696
	H27	H	0.898095	0.663577	0.778739
	H28	H	0.218294	0.898680	0.331846
	H29	H	0.219469	0.101131	0.657553
	H30	H	0.784464	0.103595	0.332154
	H31	H	0.781883	0.896054	0.656727
	H32	H	0.337501	0.218223	0.890496
	H33	H	0.662061	0.215801	0.092976
	H34	H	0.336532	0.784242	0.094570
	H35	H	0.660923	0.780448	0.891312
	H36	H	0.338398	0.897091	0.212629
	H37	H	0.661311	0.103014	0.210887
	H38	H	0.337853	0.101238	0.776183
	H39	H	0.662347	0.897704	0.776456
	H40	H	0.899859	0.219610	0.333488
	H41	H	0.101507	0.215357	0.659790
	H42	H	0.100731	0.786428	0.330795
	H43	H	0.902516	0.784619	0.658686
	H44	H	0.217532	0.338519	0.893083
	H45	H	0.217625	0.662324	0.099326
	H46	H	0.783309	0.337282	0.100107
	H47	H	0.781971	0.664102	0.893890
	H48	H	0.414257	0.117710	0.585923
	H49	H	0.593620	0.883619	0.582887
	H50	H	0.594756	0.117649	0.396652
	H51	H	0.401186	0.882049	0.404212
	H52	H	0.587942	0.407224	0.112054
	H53	H	0.590261	0.583582	0.882211
	H54	H	0.423592	0.585386	0.104672
	H55	H	0.405907	0.411758	0.879358
	H56	H	0.116528	0.594659	0.402908
	H57	H	0.888018	0.583820	0.586734
	H58	H	0.118628	0.401763	0.591403
	H59	H	0.883961	0.411138	0.402938
	H60	H	0.113333	0.410177	0.581012
	H61	H	0.880736	0.595703	0.595193
	H62	H	0.115976	0.591082	0.403598
	H63	H	0.883913	0.407420	0.405916
	H64	H	0.405079	0.609089	0.118607
	H65	H	0.586487	0.595157	0.880376
	H66	H	0.592950	0.405563	0.113443
	H67	H	0.407119	0.409878	0.879025
	H68	H	0.586935	0.114964	0.401558
	H69	H	0.592287	0.882622	0.587013
	H70	H	0.408143	0.117402	0.579204
	H71	H	0.413533	0.883086	0.396862
	H72	H	0.896790	0.618808	0.079929
	H73	H	0.088742	0.385412	0.083204
	H74	H	0.093226	0.617348	0.907168
	H75	H	0.913826	0.385385	0.905710
	H76	H	0.100440	0.912149	0.611800
	H77	H	0.089087	0.103554	0.377109
	H78	H	0.910442	0.082812	0.608796
	H79	H	0.912177	0.917758	0.382985
	H80	H	0.619999	0.099855	0.895383
	H81	H	0.383982	0.093121	0.084148
	H82	H	0.612925	0.910352	0.080385
	H83	H	0.384478	0.906695	0.900072
	H84	H	0.614676	0.911147	0.088595
	H85	H	0.385002	0.088833	0.084098
	H86	H	0.613401	0.095858	0.909071
	H87	H	0.385223	0.910146	0.903688
	H88	H	0.914578	0.094505	0.611607
	H89	H	0.102210	0.089948	0.377876
	H90	H	0.088664	0.910440	0.608528
	H91	H	0.914380	0.903190	0.378237
	H92	H	0.088238	0.617788	0.901939
	H93	H	0.096363	0.381989	0.089460
	H94	H	0.904483	0.622595	0.099999
	H95	H	0.908117	0.386223	0.912410
	H96	H	0.405628	0.120392	0.587347
	H97	H	0.589902	0.884589	0.584384
	H98	H	0.595281	0.116137	0.406860
	H99	H	0.412788	0.886840	0.409947
	H100	H	0.591960	0.410696	0.111387
	H101	H	0.597902	0.592125	0.877463
	H102	H	0.393056	0.579652	0.112634
	H103	H	0.405401	0.410159	0.879158
	H104	H	0.117101	0.591877	0.400553
	H105	H	0.885407	0.597705	0.579639
	H106	H	0.115942	0.416451	0.594647
	H107	H	0.885968	0.411336	0.406971
	H108	H	0.917519	0.614411	0.084407
	H109	H	0.085879	0.383586	0.093875
	H110	H	0.087027	0.615519	0.909229
	H111	H	0.905321	0.382388	0.904249
	H112	H	0.094742	0.900291	0.613642
	H113	H	0.084964	0.085832	0.383374
	H114	H	0.902105	0.091403	0.613947
	H115	H	0.901314	0.909475	0.376604
	H116	H	0.614202	0.085577	0.897621
	H117	H	0.383788	0.090732	0.087736
	H118	H	0.615794	0.904130	0.084219
	H119	H	0.384863	0.910643	0.900073
	C120	C	0.379701	0.010243	0.614609
	C121	C	0.622205	0.991642	0.614669
	C122	C	0.622502	0.008563	0.371603
	C123	C	0.379332	0.991955	0.372950
	C124	C	0.621051	0.378600	0.004604
	C125	C	0.620859	0.621312	0.987453
	C126	C	0.377162	0.621521	0.004128
	C127	C	0.377208	0.379458	0.987134
	C128	C	0.009178	0.623097	0.373087
	C129	C	0.992047	0.622032	0.617172
	C130	C	0.009406	0.378693	0.619391
	C131	C	0.991622	0.380043	0.375427
	C132	C	0.877037	0.510153	0.118620
	C133	C	0.119959	0.491598	0.118066
	C134	C	0.120312	0.509454	0.875339
	C135	C	0.878058	0.492182	0.875816
	C136	C	0.123460	0.878595	0.503276
	C137	C	0.122198	0.121775	0.487163
	C138	C	0.879099	0.121570	0.504028
	C139	C	0.879291	0.878850	0.486596
	C140	C	0.508461	0.123208	0.870861
	C141	C	0.491249	0.121195	0.114917
	C142	C	0.507818	0.878113	0.115592
	C143	C	0.491913	0.878568	0.871565
	C144	C	0.381298	0.886738	0.671233
	C145	C	0.621622	0.114874	0.670403
	C146	C	0.621238	0.885348	0.315558
	C147	C	0.380573	0.114993	0.316076
	C148	C	0.679365	0.379528	0.883004
	C149	C	0.676993	0.621335	0.110304
	C150	C	0.319123	0.622163	0.882244
	C151	C	0.322048	0.379688	0.110476
	C152	C	0.887256	0.679957	0.374330
	C153	C	0.114864	0.676672	0.614586
	C154	C	0.887536	0.321026	0.619141
	C155	C	0.114557	0.324655	0.378040
	C156	C	0.887220	0.378272	0.676441
	C157	C	0.113605	0.621155	0.674524
	C158	C	0.886801	0.622700	0.317435
	C159	C	0.113589	0.380754	0.318343
	C160	C	0.379146	0.677178	0.880574
	C161	C	0.618413	0.677809	0.110020
	C162	C	0.619286	0.324774	0.880894
	C163	C	0.380114	0.321947	0.109852
	C164	C	0.680153	0.886098	0.371771
	C165	C	0.679174	0.114323	0.613963
	C166	C	0.323661	0.886818	0.614521
	C167	C	0.322454	0.114997	0.372381
	C168	C	0.879026	0.386865	0.175352
	C169	C	0.118897	0.615700	0.172589
	C170	C	0.121151	0.387154	0.818018
	C171	C	0.878387	0.614979	0.817737
	C172	C	0.179746	0.879423	0.380578
	C173	C	0.180492	0.120887	0.609378
	C174	C	0.822962	0.122301	0.381212
	C175	C	0.821234	0.877249	0.608378
	C176	C	0.386355	0.179633	0.871300
	C177	C	0.613471	0.177961	0.113554
	C178	C	0.385440	0.821919	0.114699
	C179	C	0.613035	0.820028	0.872235
	C180	C	0.386381	0.878115	0.173423
	C181	C	0.613190	0.121599	0.171950
	C182	C	0.386364	0.121374	0.814360
	C183	C	0.613694	0.878457	0.814928
	C184	C	0.880315	0.180098	0.381933
	C185	C	0.121628	0.177560	0.610550
	C186	C	0.121246	0.823351	0.380198
	C187	C	0.881410	0.821989	0.609385
	C188	C	0.178646	0.387283	0.874547
	C189	C	0.177854	0.614256	0.117693
	C190	C	0.821066	0.386631	0.119118
	C191	C	0.820393	0.614824	0.874989
	C192	C	0.402456	0.096176	0.590972
	C193	C	0.598697	0.905892	0.591466
	C194	C	0.599047	0.094170	0.394833
	C195	C	0.402446	0.906199	0.396898
	C196	C	0.597734	0.401182	0.090042
	C197	C	0.598214	0.597373	0.902044
	C198	C	0.400452	0.598189	0.089840
	C199	C	0.399754	0.403442	0.901412
	C200	C	0.094536	0.599534	0.395832
	C201	C	0.906820	0.599052	0.594165
	C202	C	0.094015	0.402478	0.595931
	C203	C	0.906686	0.403242	0.398553
	C204	C	0.899651	0.596321	0.094940
	C205	C	0.097031	0.405872	0.095420
	C206	C	0.096431	0.594793	0.899083
	C207	C	0.902073	0.406936	0.900161
	C208	C	0.101247	0.901109	0.589096
	C209	C	0.098829	0.099573	0.401791
	C210	C	0.902297	0.096687	0.589385
	C211	C	0.902708	0.903082	0.401174
	C212	C	0.593795	0.100481	0.894012
	C213	C	0.406470	0.097790	0.091979
	C214	C	0.592426	0.901806	0.091511
	C215	C	0.406782	0.902359	0.894371
	Zn216	Zn	0.501304	0.001440	0.742472
	Zn217	Zn	0.500158	0.000047	0.243934
	Zn218	Zn	0.749767	0.500204	-0.002312
	Zn219	Zn	0.247517	0.500746	-0.003208
	Zn220	Zn	0.001542	0.750419	0.494748
	Zn221	Zn	0.000331	0.250470	0.497156
	Zn222	Zn	-0.000249	0.500576	0.746916
	Zn223	Zn	-0.000519	0.501887	0.245314
	Zn224	Zn	0.498772	0.749779	-0.005664
	Zn225	Zn	0.499373	0.250411	-0.005909
	Zn226	Zn	0.750505	-0.000029	0.494154
	Zn227	Zn	0.251638	0.000614	0.494143
	N228	N	0.415325	0.964596	0.671666
	N229	N	0.586936	0.037460	0.670989
	N230	N	0.586251	0.962667	0.315296
	N231	N	0.415337	0.037514	0.316334
	N232	N	0.680555	0.412398	0.960887
	N233	N	0.678623	0.586962	0.033162
	N234	N	0.317936	0.588297	0.959924
	N235	N	0.320234	0.414606	0.033205
	N236	N	0.964318	0.680270	0.408097
	N237	N	0.038166	0.677397	0.579721
	N238	N	0.964377	0.320850	0.584551
	N239	N	0.037734	0.323951	0.412806
	N240	N	0.963903	0.413397	0.676815
	N241	N	0.035925	0.588272	0.676365
	N242	N	0.963796	0.588193	0.316372
	N243	N	0.036395	0.414630	0.316758
	N244	N	0.414547	0.676878	0.957488
	N245	N	0.584248	0.677954	0.032464
	N246	N	0.583598	0.324155	0.957440
	N247	N	0.413375	0.321527	0.031930
	N248	N	0.681174	0.963703	0.405973
	N249	N	0.679729	0.036545	0.580175
	N250	N	0.322823	0.964542	0.580094
	N251	N	0.321497	0.037442	0.406971
	N252	N	0.913143	0.464596	0.175087
	N253	N	0.083548	0.538549	0.172969
	N254	N	0.085417	0.464102	0.818605
	N255	N	0.913561	0.537775	0.818046
	N256	N	0.181152	0.913274	0.458101
	N257	N	0.181155	0.087213	0.531762
	N258	N	0.821873	0.086952	0.458392
	N259	N	0.819817	0.911694	0.530942
	N260	N	0.463358	0.180973	0.905558
	N261	N	0.536773	0.177935	0.078847
	N262	N	0.462100	0.821589	0.079575
	N263	N	0.536216	0.820027	0.906762
	N264	N	0.463450	0.912451	0.174116
	N265	N	0.536269	0.087021	0.172980
	N266	N	0.463521	0.087206	0.813661
	N267	N	0.537421	0.914280	0.814410
	N268	N	0.914403	0.179774	0.459449
	N269	N	0.086105	0.178353	0.533665
	N270	N	0.086984	0.822583	0.457531
	N271	N	0.916438	0.822589	0.532364
	N272	N	0.178169	0.464400	0.909692
	N273	N	0.178680	0.536192	0.084557
	N274	N	0.819669	0.464514	0.084682
	N275	N	0.820181	0.537448	0.910535
	O276	O	0.055435	-0.151425	-0.091622
	H277	H	0.062310	-0.152913	-0.109965
	H278	H	0.063206	-0.155175	-0.092393
	O279	O	0.536351	0.626025	0.539349
	H280	H	0.537344	0.634203	0.534102
	H281	H	0.528430	0.623431	0.545087
	O282	O	1.073982	0.118609	0.006295
	H283	H	1.071948	0.121188	0.020725
	H284	H	1.091370	0.119140	0.003683
	O285	O	-0.077941	1.049830	-0.048067
	H286	H	-0.084532	1.034657	-0.044636
	H287	H	-0.070720	1.041995	-0.051026
	O288	O	0.469580	0.477751	0.431151
	H289	H	0.486672	0.484348	0.436188
	H290	H	0.476917	0.473835	0.425476
	O291	O	0.425209	0.378137	0.592501
	H292	H	0.434394	0.370262	0.599756
	H293	H	0.432645	0.376040	0.588881
	O294	O	0.884800	0.911136	0.914227
	H295	H	0.880141	0.894277	0.912538
	H296	H	0.881596	0.912691	0.928488
	O297	O	0.195398	-0.242781	-0.283097
	H298	H	0.203591	-0.254626	-0.295029
	H299	H	0.202012	-0.238759	-0.279245
	O300	O	0.600191	0.564519	0.638188
	H301	H	0.603455	0.575486	0.643146
	H302	H	0.602339	0.566884	0.637818
	O303	O	-0.091447	0.899365	1.038671
	H304	H	-0.076054	0.887967	1.031798
	H305	H	-0.104819	0.886934	1.046271
	O306	O	0.092197	1.083504	0.001464
	H307	H	0.078131	1.081711	0.003633
	H308	H	0.075338	1.081105	-0.008458
	O309	O	1.082411	-0.109319	0.091243
	H310	H	1.086487	-0.110141	0.078267
	H311	H	1.093719	-0.104062	0.091327
	O312	O	-0.036514	0.085587	1.004993
	H313	H	-0.029985	0.101949	1.010590
	H314	H	-0.033434	0.082363	1.011021
	O315	O	0.423576	0.594842	0.467699
	H316	H	0.442858	0.603314	0.469773
	H317	H	0.424066	0.582121	0.461019
	O318	O	0.383967	0.524743	0.501150
	H319	H	0.372830	0.518772	0.493760
	H320	H	0.401406	0.529932	0.506077
	O321	O	0.436905	0.369838	0.504163
	H322	H	0.431881	0.377913	0.494544
	H323	H	0.437818	0.372463	0.507801
	O324	O	0.622415	0.530378	0.501748
	H325	H	0.612043	0.526701	0.499729
	H326	H	0.621590	0.537383	0.511969
	O327	O	-0.115529	1.005885	0.976981
	H328	H	-0.119624	1.000024	0.972442
	H329	H	-0.111504	1.001433	0.976097
	O330	O	0.543911	0.588509	0.448350
	H331	H	0.539795	0.576372	0.456517
	H332	H	0.543890	0.589948	0.446131
	O333	O	0.030369	0.994236	1.036863
	H334	H	0.026308	0.998615	1.044406
	H335	H	0.016692	1.001644	1.022446
	O336	O	0.995491	0.974583	1.099729
	H337	H	0.989335	0.976433	1.088177
	H338	H	0.992741	0.962645	1.097952
	O339	O	0.404025	0.455525	0.483247
	H340	H	0.416967	0.450321	0.495397
	H341	H	0.406550	0.449646	0.479889
	O342	O	0.925624	-0.109440	0.012836
	H343	H	0.922782	-0.109417	0.002375
	H344	H	0.926188	-0.111227	0.006595
	O345	O	0.450218	0.559294	0.458805
	H346	H	0.446813	0.555302	0.457307
	H347	H	0.447702	0.545848	0.463028
	O348	O	0.927329	1.099957	0.871702
	H349	H	0.923949	1.087316	0.865769
	H350	H	0.923995	1.101060	0.885455
	O351	O	1.080644	1.046705	0.106796
	H352	H	1.088362	1.051291	0.111825
	H353	H	1.080523	1.042804	0.105703
	O354	O	0.499909	0.427966	0.474659
	H355	H	0.514201	0.437784	0.487565
	H356	H	0.499305	0.427128	0.452015
	O357	O	0.656477	0.378847	0.397581
	H358	H	0.665153	0.381304	0.388607
	H359	H	0.664273	0.388382	0.395169
	O360	O	-0.107071	0.169071	0.002554
	H361	H	-0.122248	0.187473	-0.002837
	H362	H	-0.091381	0.172126	-0.004967
	O363	O	0.655601	0.515680	0.449276
	H364	H	0.647226	0.523232	0.459142
	H365	H	0.665067	0.514490	0.447914
	O366	O	0.126441	0.176781	1.018960
	H367	H	0.122756	0.167956	1.013902
	H368	H	0.143472	0.179303	1.038245
	O369	O	0.544172	0.380201	0.571014
	H370	H	0.554130	0.371518	0.566778
	H371	H	0.544260	0.375674	0.562204
	O372	O	0.429649	0.600100	0.551906
	H373	H	0.418652	0.597761	0.551866
	H374	H	0.425958	0.596756	0.533947
	O375	O	0.570123	0.430791	0.484058
	H376	H	0.570073	0.449925	0.486144
	H377	H	0.578360	0.415383	0.493054
	O378	O	0.557967	0.592088	0.544688
	H379	H	0.544936	0.602651	0.552266
	H380	H	0.558538	0.593819	0.558070
	O381	O	0.527789	0.599538	0.562630
	H382	H	0.512665	0.592083	0.561535
	H383	H	0.515162	0.605249	0.553446
	O384	O	-0.093003	1.180351	-0.038157
	H385	H	-0.099724	1.164301	-0.045456
	H386	H	-0.082796	1.187163	-0.041446
	O387	O	1.001129	-0.004496	0.959953
	H388	H	1.003084	0.009485	0.955741
	H389	H	0.999375	-0.018328	0.956662
	O390	O	0.133805	0.969434	0.130140
	H391	H	0.146632	0.978750	0.142415
	H392	H	0.113535	0.971592	0.123048
	O393	O	1.107142	1.018656	-0.074029
	H394	H	1.108337	1.027108	-0.073915
	H395	H	1.106707	1.036337	-0.067745
	O396	O	1.040291	-0.052566	0.824622
	H397	H	1.057817	-0.038074	0.831513
	H398	H	1.039039	-0.054996	0.815509
	O399	O	-0.005940	0.833424	1.139789
	H400	H	0.004494	0.825801	1.143945
	H401	H	-0.009235	0.830603	1.141416
	O402	O	0.853146	0.996282	1.019326
	H403	H	0.857268	0.998160	1.020777
	H404	H	0.848657	1.006513	1.009677
	O405	O	0.415918	0.450155	0.511537
	H406	H	0.419642	0.443297	0.499630
	H407	H	0.429489	0.446744	0.506302
